@<TRIPOS>MOLECULE
L01
44 46 1 0 1
SMALL
USER_CHARGES
@<TRIPOS>CRYSIN
   81.1345    76.5679    90.6662    90.0000    90.0000    90.0000  1  1
@<TRIPOS>ATOM
       1 C5          42.8245    32.6923    57.1836 ca            1 L01       -0.207000
       2 C6          38.1208    32.3713    54.7361 c             1 L01        0.704700
       3 C7          41.5338    32.6864    56.5416 ca            1 L01        0.145900
       4 C8          35.2002    33.7879    58.1076 ca            1 L01        0.922900
       5 C9          33.0651    32.6540    58.4707 c3            1 L01        0.243800
       6 C10         37.4652    34.2858    56.7801 ca            1 L01       -0.418400
       7 C11         38.7679    34.4049    56.1094 cc            1 L01        0.002800
       8 C12         43.9647    33.1099    56.3954 ca            1 L01        0.150900
       9 C13         43.8832    33.5399    55.1252 ca            1 L01       -0.175000
      10 C14         42.5918    33.6521    54.5569 ca            1 L01       -0.075000
      11 C15         36.5777    33.2753    56.4097 ca            1 L01        0.622200
      12 C16         37.0726    35.1359    57.8183 ca            1 L01        0.522200
      13 C17         39.0401    33.4531    55.1400 cd            1 L01       -0.049100
      14 C18         41.4061    33.2719    55.2548 ca            1 L01        0.031100
      15 C19         35.8331    31.7101    54.6669 c3            1 L01        0.068300
      16 F1          40.4074    32.2811    57.1826 f             1 L01       -0.130900
      17 O2          40.2757    33.5336    54.5541 os            1 L01       -0.223200
      18 N1          36.0005    34.7827    58.5449 nb            1 L01       -0.763000
      19 O3          38.4185    31.6618    53.7622 o             1 L01       -0.617500
      20 N2          36.8432    32.4745    55.3029 n             1 L01       -0.421300
      21 N3          35.4430    33.0167    57.0406 nb            1 L01       -0.802000
      22 N4          34.0754    33.6246    58.7967 nu            1 L01       -0.838900
      23 H9          42.8794    32.2654    58.1807 ha            1 L01        0.166000
      24 HP1         32.5481    32.4669    59.4199 h1            1 L01        0.075200
      25 H11         39.5771    35.0182    56.4889 ha            1 L01        0.164000
      26 H12         44.7005    33.8063    54.4615 ha            1 L01        0.159000
      27 H13         42.4898    34.0730    53.5610 ha            1 L01        0.186000
      28 H14         37.6182    35.9751    58.2472 h4            1 L01        0.035100
      29 H15         35.3903    30.9914    55.3675 h1            1 L01        0.066367
      30 H16         34.9476    32.3282    54.4742 h1            1 L01        0.066367
      31 H17         36.2552    31.1685    53.8113 h1            1 L01        0.066367
      32 H18         33.8659    34.4796    59.2960 hn            1 L01        0.446800
      33 F2          45.1579    32.9809    56.8960 f             1 L01       -0.133900
      34 CP1         32.1535    33.3771    57.4394 c3            1 L01       -0.337600
      35 H10         33.4711    31.7324    58.0357 h1            1 L01        0.075200
      36 HP2         31.7830    34.2597    57.9751 h1            1 L01        0.114200
      37 HP3         32.7434    33.6909    56.5694 h1            1 L01        0.114200
      38 CP2         29.7818    31.9883    58.3277 c3            1 L01       -0.375300
      39 SP1         30.8062    32.1799    56.8985 s6            1 L01        1.348000
      40 OP2         30.0269    32.6989    55.7792 o             1 L01       -0.645800
      41 OP1         31.5058    30.8822    56.7511 o             1 L01       -0.645800
      42 HP5         30.3035    31.4598    59.1351 h1            1 L01        0.121367
      43 HP4         29.5760    33.0355    58.5815 h1            1 L01        0.121367
      44 HP6         28.9461    31.3825    57.9562 h1            1 L01        0.121367
@<TRIPOS>BOND
       1       39       40 1
       2       39       41 1
       3       38       39 1
       4       34       39 1
       5       15       20 1
       6       14       17 1
       7       13       17 1
       8       12       18 1
       9       11       20 1
      10       11       21 1
      11       10       14 1
      12        9       10 1
      13        8        9 1
      14        8       33 1
      15        7       13 1
      16        6        7 1
      17        6       11 1
      18        6       12 1
      19        5       22 1
      20        5       34 1
      21        4       18 1
      22        4       21 1
      23        4       22 1
      24        3       14 1
      25        3       16 1
      26        2       13 1
      27        2       19 1
      28        2       20 1
      29        1        3 1
      30        1        8 1
      31       38       42 1
      32       38       43 1
      33       38       44 1
      34       34       36 1
      35       34       37 1
      36       22       32 1
      37       15       29 1
      38       15       30 1
      39       15       31 1
      40       12       28 1
      41       10       27 1
      42        9       26 1
      43        7       25 1
      44        5       24 1
      45        5       35 1
      46        1       23 1
@<TRIPOS>SUBSTRUCTURE
       1 L01             1 RESIDUE    0 **** ROOT      0
