@<TRIPOS>MOLECULE
L02
35 37 1 0 1
SMALL
USER_CHARGES
@<TRIPOS>CRYSIN
   78.7711    75.9872    93.9363    90.0000    90.0000    90.0000  1  1
@<TRIPOS>ATOM
       1 C5          43.4781    33.0538    59.4784 ca            1 L02       -0.184000
       2 C6          38.6179    32.2748    56.6821 c             1 L02        0.698700
       3 C7          42.2547    32.8471    58.8544 ca            1 L02        0.145900
       4 C8          35.4880    33.6326    59.8292 ca            1 L02        0.927900
       5 CV1         33.4619    32.2291    60.2532 c3            1 L02        0.210100
       6 C10         37.8670    33.9422    58.7582 ca            1 L02       -0.430400
       7 C11         39.3121    33.9899    58.4045 cc            1 L02        0.007800
       8 C12         44.5129    33.7605    58.8554 ca            1 L02        0.125900
       9 C13         44.3172    34.2043    57.5279 ca            1 L02       -0.151000
      10 C14         43.0948    33.9891    56.8743 ca            1 L02       -0.135000
      11 C15         37.0143    33.0158    58.2607 ca            1 L02        0.625200
      12 C16         37.3621    34.7487    59.7993 ca            1 L02        0.524200
      13 C17         39.7046    33.1394    57.3595 cd            1 L02       -0.058100
      14 C18         42.0485    33.2754    57.5025 ca            1 L02        0.074100
      15 C19         36.4868    31.1051    56.8225 c3            1 L02        0.070300
      16 F1          41.3450    32.1315    59.5102 f             1 L02       -0.117900
      17 O2          40.9322    33.1981    56.7848 os            1 L02       -0.210200
      18 N1          36.1888    34.5770    60.3845 nb            1 L02       -0.766000
      19 O3          38.9096    31.6240    55.7155 o             1 L02       -0.596500
      20 N2          37.3614    32.1579    57.2899 n             1 L02       -0.424300
      21 N3          35.7930    32.9054    58.7154 nb            1 L02       -0.809000
      22 N4          34.1860    33.5017    60.2646 nu            1 L02       -0.848900
      23 H9          43.5761    32.6750    60.4915 ha            1 L02        0.167000
      24 HV3         33.3347    31.8980    59.2151 h1            1 L02        0.049033
      25 H11         40.0332    34.6566    58.8634 ha            1 L02        0.158000
      26 H12         45.1243    34.8369    57.1706 ha            1 L02        0.154000
      27 H13         42.8869    34.2811    55.8492 ha            1 L02        0.151000
      28 H14         37.9429    35.5762    60.2039 h4            1 L02        0.033100
      29 H15         35.6638    31.5230    56.2298 h1            1 L02        0.064700
      30 H16         37.0696    30.3566    56.2716 h1            1 L02        0.064700
      31 H17         35.9876    30.5811    57.6469 h1            1 L02        0.064700
      32 H18         34.0050    34.2802    60.8853 hn            1 L02        0.454800
      33 F2          45.5678    34.2317    59.5487 f             1 L02       -0.136900
      34 HV1         33.9641    31.4768    60.8739 h1            1 L02        0.049033
      35 HV2         32.4120    32.3236    60.5570 h1            1 L02        0.049033
@<TRIPOS>BOND
       1       15       20 1
       2       14       17 1
       3       13       17 1
       4       12       18 1
       5       11       20 1
       6       11       21 1
       7       10       14 1
       8        9       10 1
       9        8        9 1
      10        8       33 1
      11        7       13 1
      12        6        7 1
      13        6       11 1
      14        6       12 1
      15        5       22 1
      16        4       18 1
      17        4       21 1
      18        4       22 1
      19        3       14 1
      20        3       16 1
      21        2       13 1
      22        2       19 1
      23        2       20 1
      24        1        3 1
      25        1        8 1
      26       22       32 1
      27       15       29 1
      28       15       30 1
      29       15       31 1
      30       12       28 1
      31       10       27 1
      32        9       26 1
      33        7       25 1
      34        5       24 1
      35        5       34 1
      36        5       35 1
      37        1       23 1
@<TRIPOS>SUBSTRUCTURE
       1 L02             1 RESIDUE    0 **** ROOT      0
