@<TRIPOS>MOLECULE
L03
45 47 1 0 1
SMALL
USER_CHARGES
@<TRIPOS>CRYSIN
   82.7199    75.3533    90.2680    90.0000    90.0000    90.0000  1  1
@<TRIPOS>ATOM
       1 C5          43.4629    30.7267    57.0695 ca            1 L03       -0.206000
       2 C6          39.3908    29.2072    53.7277 c             1 L03        0.705700
       3 C7          42.4157    30.3398    56.2287 ca            1 L03        0.145900
       4 C8          35.6270    30.4613    56.0501 ca            1 L03        0.919900
       5 CX4         33.3784    29.5578    55.4454 c3            1 L03        0.219800
       6 C10         38.0751    30.9475    55.5843 ca            1 L03       -0.422400
       7 C11         39.3779    31.2985    55.2592 cc            1 L03        0.007800
       8 C12         44.2923    31.7749    56.7049 ca            1 L03        0.149900
       9 C13         43.9968    32.5379    55.5542 ca            1 L03       -0.175000
      10 C14         42.9691    32.0903    54.6594 ca            1 L03       -0.076000
      11 C15         37.4841    29.8927    54.9632 ca            1 L03        0.621200
      12 C16         37.4306    31.6615    56.5286 ca            1 L03        0.521200
      13 C17         40.1010    30.2999    54.5538 cd            1 L03       -0.054100
      14 C18         42.2906    30.9577    54.9785 ca            1 L03        0.032100
      15 C19         37.2885    28.1458    53.0482 c3            1 L03        0.071300
      16 F1          41.6178    29.2955    56.5140 f             1 L03       -0.130900
      17 O2          41.3566    30.5240    54.0938 os            1 L03       -0.223200
      18 N1          36.1200    31.4870    56.7005 nb            1 L03       -0.758000
      19 O3          39.9653    28.5066    52.8453 o             1 L03       -0.622500
      20 N2          38.0486    29.1677    53.8876 n             1 L03       -0.423300
      21 N3          36.2076    29.6092    55.2398 nb            1 L03       -0.809000
      22 N4          34.3258    30.1786    56.4095 nu            1 L03       -0.819900
      23 H9          43.5770    30.1982    58.0113 ha            1 L03        0.166000
      24 HX9         33.7594    29.7939    54.4442 h1            1 L03        0.063200
      25 H11         39.7727    32.2520    55.5909 ha            1 L03        0.163000
      26 H12         44.5212    33.4696    55.3636 ha            1 L03        0.158000
      27 H13         42.8470    32.6842    53.7585 ha            1 L03        0.186000
      28 H14         37.8742    32.5414    56.9921 h4            1 L03        0.034100
      29 H15         36.2216    28.0756    53.2937 h1            1 L03        0.063367
      30 H16         37.3829    28.3711    51.9787 h1            1 L03        0.063367
      31 H17         37.6799    27.1303    53.1858 h1            1 L03        0.063367
      32 H18         33.8961    30.9030    56.9705 hn            1 L03        0.455800
      33 F2          45.2245    32.2130    57.5424 f             1 L03       -0.134900
      34 CX1         33.3429    27.9994    55.5524 c3            1 L03        0.136800
      35 HX1         32.4207    30.0823    55.5506 h1            1 L03        0.063200
      36 CX3         32.6408    27.3935    54.3017 c3            1 L03       -0.124100
      37 OX1         34.6583    27.4787    55.6961 oh            1 L03       -0.606800
      38 CX2         32.6625    27.5142    56.7836 c3            1 L03       -0.124100
      39 HX2         35.1643    28.3003    55.8212 ho            1 L03        0.409000
      40 HX6         31.6204    27.7869    54.2167 hc            1 L03        0.049033
      41 HX7         33.2555    27.6424    53.4278 hc            1 L03        0.049033
      42 HX8         32.5557    26.3076    54.4323 hc            1 L03        0.049033
      43 HX4         31.6094    27.8064    56.8778 hc            1 L03        0.049033
      44 HX5         32.5399    26.4326    56.9194 hc            1 L03        0.049033
      45 HX3         33.1819    27.9655    57.6380 hc            1 L03        0.049033
@<TRIPOS>BOND
       1       34       36 1
       2       34       37 1
       3       34       38 1
       4       15       20 1
       5       14       17 1
       6       13       17 1
       7       12       18 1
       8       11       20 1
       9       11       21 1
      10       10       14 1
      11        9       10 1
      12        8        9 1
      13        8       33 1
      14        7       13 1
      15        6        7 1
      16        6       11 1
      17        6       12 1
      18        5       22 1
      19        5       34 1
      20        4       18 1
      21        4       21 1
      22        4       22 1
      23        3       14 1
      24        3       16 1
      25        2       13 1
      26        2       19 1
      27        2       20 1
      28        1        3 1
      29        1        8 1
      30       38       43 1
      31       38       44 1
      32       38       45 1
      33       37       39 1
      34       36       40 1
      35       36       41 1
      36       36       42 1
      37       22       32 1
      38       15       29 1
      39       15       30 1
      40       15       31 1
      41       12       28 1
      42       10       27 1
      43        9       26 1
      44        7       25 1
      45        5       24 1
      46        5       35 1
      47        1       23 1
@<TRIPOS>SUBSTRUCTURE
       1 L03             1 RESIDUE    0 **** ROOT      0
