@<TRIPOS>MOLECULE
L04
45 47 1 0 1
SMALL
USER_CHARGES
@<TRIPOS>CRYSIN
   82.6116    75.9767    89.6656    90.0000    90.0000    90.0000  1  1
@<TRIPOS>ATOM
       1 C5          46.3069    33.1324    56.7407 ca            1 L04       -0.184000
       2 C6          42.5007    31.0341    53.6020 c             1 L04        0.698700
       3 C7          45.3128    32.6408    55.8763 ca            1 L04        0.145900
       4 C8          38.4101    32.7219    55.3079 ca            1 L04        0.927900
       5 C9          36.1944    31.3743    55.3617 c3            1 L04        0.244200
       6 C10         40.9800    33.1109    54.8917 ca            1 L04       -0.429400
       7 C11         42.3888    33.3553    54.6095 cc            1 L04        0.008800
       8 C12         47.3269    33.9859    56.1590 ca            1 L04        0.124900
       9 C13         47.3247    34.2536    54.7800 ca            1 L04       -0.151000
      10 C14         46.3621    33.6647    53.9462 ca            1 L04       -0.135000
      11 C15         40.3930    31.9012    54.5755 ca            1 L04        0.622200
      12 C16         40.1682    34.1246    55.3741 ca            1 L04        0.521200
      13 C17         43.0826    32.3225    53.9930 cd            1 L04       -0.059100
      14 C18         45.3777    32.9153    54.5208 ca            1 L04        0.074100
      15 C19         40.3914    29.6782    53.3954 c3            1 L04        0.070300
      16 F1          44.2803    31.9012    56.3876 f             1 L04       -0.117900
      17 O2          44.4075    32.4900    53.5840 os            1 L04       -0.210200
      18 N1          38.9147    33.8800    55.6507 nb            1 L04       -0.762000
      19 O3          43.0826    30.1711    52.9073 o             1 L04       -0.598500
      20 N2          41.1282    30.9255    53.9362 n             1 L04       -0.425300
      21 N3          39.1245    31.7359    54.8032 nb            1 L04       -0.808000
      22 N4          37.0439    32.5391    55.6369 nu            1 L04       -0.816900
      23 H9          46.2815    32.9822    57.8160 ha            1 L04        0.167000
      24 CQ3         36.8326    30.1505    56.0129 c3            1 L04       -0.107600
      25 H11         42.8655    34.3079    54.8106 ha            1 L04        0.158000
      26 H12         48.1291    34.9344    54.5176 ha            1 L04        0.154000
      27 H13         46.4617    33.8376    52.8787 ha            1 L04        0.151000
      28 H14         40.6204    35.0595    55.7017 h4            1 L04        0.032100
      29 H17         39.7328    29.2772    54.1757 h1            1 L04        0.063367
      30 H15         39.7551    29.7161    52.5026 h1            1 L04        0.063367
      31 H16         41.0994    28.8794    53.1421 h1            1 L04        0.063367
      32 H18         36.8000    33.3125    56.2424 hn            1 L04        0.454800
      33 F2          48.2580    34.5560    56.9402 f             1 L04       -0.136900
      34 CQ2         34.7417    31.4938    55.8934 c3            1 L04        0.116400
      35 CQ1         36.0892    31.1873    53.8313 c3            1 L04       -0.107600
      36 OQ1         34.7416    31.7333    57.2856 oh            1 L04       -0.609800
      37 HQ1         35.0206    32.6579    57.4040 ho            1 L04        0.411000
      38 HQ2         34.2468    32.2835    55.3146 h1            1 L04        0.038200
      39 HQ3         34.1911    30.5765    55.6509 h1            1 L04        0.038200
      40 HQ9         35.1763    30.6633    53.5225 hc            1 L04        0.051200
      41 HQ8         36.0540    32.1977    53.4056 hc            1 L04        0.051200
      42 HQ7         36.9866    30.7142    53.4139 hc            1 L04        0.051200
      43 HQ6         37.5764    29.6439    55.3855 hc            1 L04        0.051200
      44 HQ4         37.2472    30.4326    56.9885 hc            1 L04        0.051200
      45 HQ5         36.0782    29.3977    56.2731 hc            1 L04        0.051200
@<TRIPOS>BOND
       1       34       36 1
       2       15       20 1
       3       14       17 1
       4       13       17 1
       5       12       18 1
       6       11       20 1
       7       11       21 1
       8       10       14 1
       9        9       10 1
      10        8        9 1
      11        8       33 1
      12        7       13 1
      13        6        7 1
      14        6       11 1
      15        6       12 1
      16        5       22 1
      17        5       24 1
      18        5       34 1
      19        5       35 1
      20        4       18 1
      21        4       21 1
      22        4       22 1
      23        3       14 1
      24        3       16 1
      25        2       13 1
      26        2       19 1
      27        2       20 1
      28        1        3 1
      29        1        8 1
      30       36       37 1
      31       35       40 1
      32       35       41 1
      33       35       42 1
      34       34       38 1
      35       34       39 1
      36       24       43 1
      37       24       44 1
      38       24       45 1
      39       22       32 1
      40       15       29 1
      41       15       30 1
      42       15       31 1
      43       12       28 1
      44       10       27 1
      45        9       26 1
      46        7       25 1
      47        1       23 1
@<TRIPOS>SUBSTRUCTURE
       1 L04             1 RESIDUE    0 **** ROOT      0
