@<TRIPOS>MOLECULE
L05
46 49 1 0 1
SMALL
USER_CHARGES
@<TRIPOS>CRYSIN
   79.8755    76.5179    91.9810    90.0000    90.0000    90.0000  1  1
@<TRIPOS>ATOM
       1 F2          45.7396    33.8367    58.1344 f             1 L05       -0.133900
       2 C12         44.6902    33.5230    57.3532 ca            1 L05        0.151900
       3 C13         44.6614    34.0754    56.0986 ca            1 L05       -0.175000
       4 C14         43.5792    33.9023    55.2263 ca            1 L05       -0.075000
       5 C5          43.6160    32.8269    57.8268 ca            1 L05       -0.206000
       6 C7          42.5144    32.6575    57.0012 ca            1 L05        0.145900
       7 F1          41.4192    32.0097    57.5256 f             1 L05       -0.130900
       8 C18         42.4724    33.1729    55.6904 ca            1 L05        0.030100
       9 O2          41.3725    33.0136    54.8533 os            1 L05       -0.223200
      10 C17         40.1539    33.2947    55.3956 cc            1 L05       -0.050100
      11 C6          39.0722    32.2454    55.1960 c             1 L05        0.705700
      12 O3          39.3102    31.2380    54.5806 o             1 L05       -0.619500
      13 N2          37.8228    32.4820    55.7865 n             1 L05       -0.423300
      14 C19         36.7564    31.5027    55.6121 c3            1 L05        0.071300
      15 C15         37.6429    33.6755    56.5372 ca            1 L05        0.622200
      16 N3          36.4474    33.8043    57.0633 nb            1 L05       -0.819000
      17 C11         39.9329    34.4926    56.1185 cd            1 L05        0.004800
      18 C10         38.6731    34.6008    56.7165 ca            1 L05       -0.417400
      19 C16         38.3828    35.6937    57.5464 ca            1 L05        0.522200
      20 N1          37.1351    35.8253    58.1150 nb            1 L05       -0.751000
      21 C8          36.2579    34.8717    57.8177 ca            1 L05        0.929900
      22 N4          35.0115    35.0039    58.3197 nu            1 L05       -0.825900
      23 CZ3         33.8628    34.7737    57.4511 c3            1 L05        0.212500
      24 CZ4         33.6101    36.0608    56.5647 c3            1 L05       -0.109100
      25 CZ1         32.7161    34.4681    58.4613 c3            1 L05        0.031300
      26 NZ4         31.3614    34.1985    57.9337 na            1 L05        0.194900
      27 NZ1         31.1733    33.9329    56.6137 nc            1 L05       -0.496800
      28 CZ2         29.8800    33.7205    56.6094 cd            1 L05        0.471900
      29 NZ2         29.3547    33.6029    57.8463 nd            1 L05       -0.370000
      30 NZ3         30.2705    33.9544    58.6978 nc            1 L05       -0.149800
      31 H12         45.5570    34.6140    55.8033 ha            1 L05        0.158000
      32 H13         43.5036    34.2756    54.2093 ha            1 L05        0.185000
      33 H9          43.5168    32.5836    58.8806 ha            1 L05        0.167000
      34 H15         37.0488    30.5729    55.1088 h1            1 L05        0.062700
      35 H16         36.3839    31.0727    56.5500 h1            1 L05        0.062700
      36 H17         35.9650    31.9979    55.0360 h1            1 L05        0.062700
      37 H11         40.7074    35.2430    56.2289 ha            1 L05        0.165000
      38 H14         39.1567    36.4233    57.7801 h4            1 L05        0.036100
      39 H18         34.9488    35.7303    59.0214 hn            1 L05        0.452800
      40 HZ1         33.9033    33.8552    56.8526 h1            1 L05        0.094700
      41 HZ2         32.8159    35.7537    55.8732 hc            1 L05        0.054033
      42 HZ3         33.1446    36.7557    57.2745 hc            1 L05        0.054033
      43 HZ4         34.5121    36.4149    56.0503 hc            1 L05        0.054033
      44 HZ5         33.0969    33.6316    59.0602 h1            1 L05        0.091700
      45 HZ6         32.6066    35.2642    59.2080 h1            1 L05        0.091700
      46 HZ7         29.2424    33.4793    55.7691 h5            1 L05        0.088100
@<TRIPOS>BOND
       1       29       30 1
       2       28       29 1
       3       27       28 1
       4       26       27 1
       5       26       30 1
       6       25       26 1
       7       23       24 1
       8       23       25 1
       9       22       23 1
      10       21       22 1
      11       20       21 1
      12       19       20 1
      13       18       19 1
      14       17       18 1
      15       16       21 1
      16       15       16 1
      17       15       18 1
      18       13       14 1
      19       13       15 1
      20       11       12 1
      21       11       13 1
      22       10       11 1
      23       10       17 1
      24        9       10 1
      25        8        9 1
      26        6        7 1
      27        6        8 1
      28        5        6 1
      29        4        8 1
      30        3        4 1
      31        2        3 1
      32        2        5 1
      33        1        2 1
      34       28       46 1
      35       25       44 1
      36       25       45 1
      37       24       41 1
      38       24       42 1
      39       24       43 1
      40       23       40 1
      41       22       39 1
      42       19       38 1
      43       17       37 1
      44       14       34 1
      45       14       35 1
      46       14       36 1
      47        5       33 1
      48        4       32 1
      49        3       31 1
@<TRIPOS>SUBSTRUCTURE
       1 L05             1 RESIDUE    0 **** ROOT      0
