@<TRIPOS>MOLECULE
L06
46 49 1 0 1
SMALL
USER_CHARGES
@<TRIPOS>CRYSIN
   81.8936    75.7945    90.7908    90.0000    90.0000    90.0000  1  1
@<TRIPOS>ATOM
       1 C7          43.5555    33.7176    57.0272 ca            1 L06        0.144900
       2 C5          44.5849    34.0884    57.8494 ca            1 L06       -0.207000
       3 C19         38.0514    31.2465    55.1835 c3            1 L06        0.066300
       4 C13         45.3613    35.6003    56.0837 ca            1 L06       -0.174000
       5 C16         38.6555    35.4701    57.6941 ca            1 L06        0.520200
       6 CZ3         34.5095    32.9959    57.7594 c3            1 L06        0.206500
       7 CZ4         33.6293    33.5205    56.5910 c3            1 L06        0.034300
       8 C8          36.7814    34.2042    57.6356 ca            1 L06        0.931900
       9 C6          40.1156    32.6973    54.8823 c             1 L06        0.704700
      10 C17         41.0043    33.8298    55.3965 cc            1 L06       -0.049100
      11 C11         40.5823    34.7019    56.3401 cd            1 L06        0.002800
      12 C18         43.3545    34.2974    55.7310 ca            1 L06        0.031100
      13 C14         44.3286    35.2812    55.2416 ca            1 L06       -0.075000
      14 C10         39.2245    34.5582    56.8023 ca            1 L06       -0.419400
      15 C15         38.4633    33.4451    56.3876 ca            1 L06        0.622200
      16 N4          35.5716    33.9814    58.1394 nu            1 L06       -0.831900
      17 C12         45.4838    35.0058    57.3420 ca            1 L06        0.150900
      18 F2          46.5832    35.2660    58.1078 f             1 L06       -0.133900
      19 F1          42.6160    32.8559    57.4794 f             1 L06       -0.130900
      20 O2          42.2812    34.0147    54.8541 os            1 L06       -0.223200
      21 O3          40.4663    31.9328    53.9794 o             1 L06       -0.617500
      22 N2          38.9110    32.5048    55.4939 n             1 L06       -0.418300
      23 N3          37.2831    33.1871    56.8790 nb            1 L06       -0.811000
      24 N1          37.3738    35.3421    57.9929 nb            1 L06       -0.755000
      25 CZ2         33.6446    32.7557    58.9836 c3            1 L06       -0.109100
      26 NZ1         34.2879    33.7440    55.3352 na            1 L06        0.203900
      27 NZ2         34.9245    34.8615    54.9727 nc            1 L06       -0.495800
      28 CZ1         35.4292    34.5284    53.7281 cd            1 L06        0.472900
      29 NZ3         35.0042    33.3121    53.3637 nd            1 L06       -0.372000
      30 NZ4         34.2177    32.8721    54.3165 nc            1 L06       -0.143800
      31 H9          44.7900    33.5287    58.7572 ha            1 L06        0.166000
      32 H17         37.7444    30.7127    56.0914 h1            1 L06        0.067033
      33 H16         37.1357    31.5296    54.6499 h1            1 L06        0.067033
      34 H15         38.6909    30.4995    54.6973 h1            1 L06        0.067033
      35 H12         46.0565    36.3877    55.8080 ha            1 L06        0.159000
      36 H14         39.1129    36.4287    57.9345 h4            1 L06        0.035100
      37 HZ1         34.9937    32.0329    57.5555 h1            1 L06        0.103700
      38 HZ2         32.7098    32.9513    56.4067 h1            1 L06        0.083700
      39 HZ3         33.1583    34.4436    56.9509 h1            1 L06        0.083700
      40 H11         41.2398    35.4706    56.7298 ha            1 L06        0.163000
      41 H13         44.3072    35.5819    54.1983 ha            1 L06        0.186000
      42 H18         35.1558    34.7813    58.5992 hn            1 L06        0.446800
      43 HZ5         33.0367    33.6495    59.1702 hc            1 L06        0.053033
      44 HZ6         32.8514    32.0154    58.8223 hc            1 L06        0.053033
      45 HZ4         34.1554    32.3579    59.8692 hc            1 L06        0.053033
      46 H27         36.0522    35.1959    53.1475 h5            1 L06        0.087100
@<TRIPOS>BOND
       1       29       30 1
       2       28       29 1
       3       27       28 1
       4       26       27 1
       5       26       30 1
       6       17       18 1
       7       15       22 1
       8       15       23 1
       9       14       15 1
      10       12       13 1
      11       12       20 1
      12       11       14 1
      13       10       11 1
      14       10       20 1
      15        9       10 1
      16        9       21 1
      17        9       22 1
      18        8       16 1
      19        8       23 1
      20        8       24 1
      21        7       26 1
      22        6        7 1
      23        6       16 1
      24        6       25 1
      25        5       14 1
      26        5       24 1
      27        4       13 1
      28        4       17 1
      29        3       22 1
      30        2       17 1
      31        1        2 1
      32        1       12 1
      33        1       19 1
      34       28       46 1
      35       25       43 1
      36       25       44 1
      37       25       45 1
      38       16       42 1
      39       13       41 1
      40       11       40 1
      41        7       38 1
      42        7       39 1
      43        6       37 1
      44        5       36 1
      45        4       35 1
      46        3       32 1
      47        3       33 1
      48        3       34 1
      49        2       31 1
@<TRIPOS>SUBSTRUCTURE
       1 L06             1 RESIDUE    0 **** ROOT      0
