@<TRIPOS>MOLECULE
L08
49 51 1 0 1
SMALL
USER_CHARGES
@<TRIPOS>CRYSIN
   82.6519    76.0138    89.7094    90.0000    90.0000    90.0000  1  1
@<TRIPOS>ATOM
       1 C5          44.3094    33.1163    57.3759 ca            1 L08       -0.206000
       2 C12         45.3071    33.7159    56.6166 ca            1 L08        0.151900
       3 CY3         33.1995    33.8776    59.5427 c3            1 L08       -0.138900
       4 CY4         31.8074    33.1971    59.5435 c3            1 L08        0.131400
       5 CY2         33.1388    34.8214    57.2100 c3            1 L08       -0.138900
       6 C19         36.9165    31.7848    55.1002 c3            1 L08        0.065300
       7 F1          42.0451    32.5614    57.5022 f             1 L08       -0.130900
       8 C7          43.0172    33.0404    56.7669 ca            1 L08        0.145900
       9 F2          46.5367    33.9005    57.1059 f             1 L08       -0.133900
      10 C13         45.1059    34.1591    55.2978 ca            1 L08       -0.175000
      11 C14         43.8034    34.0460    54.7151 ca            1 L08       -0.075000
      12 C18         42.7116    33.5876    55.4706 ca            1 L08        0.030100
      13 O2          41.4992    33.5161    54.8381 os            1 L08       -0.223200
      14 C17         40.3264    33.5289    55.5112 cc            1 L08       -0.050100
      15 C11         40.0946    34.6214    56.3035 cd            1 L08        0.005800
      16 C10         38.7075    34.7241    56.8488 ca            1 L08       -0.423400
      17 C16         38.3666    35.6170    57.8330 ca            1 L08        0.526200
      18 N1          37.1659    35.6809    58.3704 nb            1 L08       -0.767000
      19 C6          39.2063    32.6737    54.9939 c             1 L08        0.705700
      20 O3          39.4486    31.8967    54.1127 o             1 L08       -0.616500
      21 N2          37.9696    32.8340    55.4885 n             1 L08       -0.423300
      22 C15         37.6986    33.8189    56.4621 ca            1 L08        0.627200
      23 N3          36.6086    33.6996    57.1509 nb            1 L08       -0.830000
      24 C8          36.3429    34.7305    57.9331 ca            1 L08        0.937900
      25 N4          35.1160    34.8947    58.4673 nu            1 L08       -0.852900
      26 CY5         33.9585    34.0756    58.2461 c3            1 L08        0.233500
      27 CY1         33.8294    35.0909    55.9019 c3            1 L08        0.131400
      28 OY1         34.1192    33.9270    55.2412 oh            1 L08       -0.598800
      29 OY2         31.8055    32.0565    58.7662 oh            1 L08       -0.598800
      30 H9          44.5104    32.5683    58.2917 ha            1 L08        0.166000
      31 HY6         33.1340    34.7957    60.1395 hc            1 L08        0.059200
      32 HY7         33.9223    33.2803    60.1121 hc            1 L08        0.059200
      33 HY9         31.5534    32.9103    60.5715 h1            1 L08        0.050200
      34 HY8         30.9557    33.8345    59.2755 h1            1 L08        0.050200
      35 HY10        32.2746    34.1772    57.0065 hc            1 L08        0.059200
      36 HY11        32.7789    35.7100    57.7432 hc            1 L08        0.059200
      37 H16         35.8887    32.1488    54.9794 h1            1 L08        0.066033
      38 H17         37.1485    31.2276    54.1841 h1            1 L08        0.066033
      39 H15         36.8371    31.0530    55.9135 h1            1 L08        0.066033
      40 H12         45.9190    34.6824    54.8034 ha            1 L08        0.159000
      41 H13         43.6547    34.2947    53.6685 ha            1 L08        0.186000
      42 H11         40.9648    35.2242    56.5368 ha            1 L08        0.164000
      43 H14         39.0819    36.3603    58.1819 h4            1 L08        0.036100
      44 H18         35.0678    35.8168    58.8817 hn            1 L08        0.451800
      45 HY1         34.2706    33.1321    57.7816 h1            1 L08        0.086700
      46 HY2         33.0558    35.6312    55.3423 h1            1 L08        0.050200
      47 HY3         34.7372    35.6787    56.0855 h1            1 L08        0.050200
      48 HY4         34.5867    33.2958    55.8154 ho            1 L08        0.403000
      49 HY5         31.5119    31.4140    59.4353 ho            1 L08        0.403000
@<TRIPOS>BOND
       1       27       28 1
       2       25       26 1
       3       24       25 1
       4       23       24 1
       5       22       23 1
       6       21       22 1
       7       19       20 1
       8       19       21 1
       9       18       24 1
      10       17       18 1
      11       16       17 1
      12       16       22 1
      13       15       16 1
      14       14       15 1
      15       14       19 1
      16       13       14 1
      17       12       13 1
      18       11       12 1
      19       10       11 1
      20        8       12 1
      21        7        8 1
      22        6       21 1
      23        5       26 1
      24        5       27 1
      25        4       29 1
      26        3        4 1
      27        3       26 1
      28        2        9 1
      29        2       10 1
      30        1        2 1
      31        1        8 1
      32       29       49 1
      33       28       48 1
      34       27       46 1
      35       27       47 1
      36       26       45 1
      37       25       44 1
      38       17       43 1
      39       15       42 1
      40       11       41 1
      41       10       40 1
      42        6       37 1
      43        6       38 1
      44        6       39 1
      45        5       35 1
      46        5       36 1
      47        4       33 1
      48        4       34 1
      49        3       31 1
      50        3       32 1
      51        1       30 1
@<TRIPOS>SUBSTRUCTURE
       1 L08             1 RESIDUE    0 **** ROOT      0
