@<TRIPOS>MOLECULE
L08
   15    15     1     0     0
SMALL
bcc


@<TRIPOS>ATOM
      1 C            1.9310    -1.0140    -1.6030 c3         1 L08      -0.053800
      2 C1           1.8850    -1.0360    -0.1120 ca         1 L08      -0.077300
      3 C2           2.9210    -1.6310     0.6080 ca         1 L08      -0.131000
      4 C3           2.8780    -1.6520     2.0020 ca         1 L08      -0.127000
      5 C4           1.8000    -1.0790     2.6760 ca         1 L08      -0.135000
      6 C5           0.7640    -0.4840     1.9550 ca         1 L08      -0.127000
      7 C6           0.8070    -0.4630     0.5610 ca         1 L08      -0.131000
      8 H            2.4390    -0.1080    -1.9480 hc         1 L08       0.044033
      9 H1           2.4640    -1.8890    -1.9910 hc         1 L08       0.044033
     10 H2           0.9210    -1.0370    -2.0250 hc         1 L08       0.044033
     11 H3           3.7650    -2.0800     0.0910 ha         1 L08       0.130000
     12 H4           3.6850    -2.1150     2.5630 ha         1 L08       0.130000
     13 H5           1.7660    -1.0950     3.7610 ha         1 L08       0.130000
     14 H6          -0.0760    -0.0380     2.4790 ha         1 L08       0.130000
     15 H7          -0.0050     0.0030     0.0080 ha         1 L08       0.130000
@<TRIPOS>BOND
     1     1     2 1   
     2     1     8 1   
     3     1     9 1   
     4     1    10 1   
     5     2     3 ar  
     6     2     7 ar  
     7     3     4 ar  
     8     3    11 1   
     9     4     5 ar  
    10     4    12 1   
    11     5     6 ar  
    12     5    13 1   
    13     6     7 ar  
    14     6    14 1   
    15     7    15 1   
@<TRIPOS>SUBSTRUCTURE
     1 L08         1 TEMP              0 ****  ****    0 ROOT
