@<TRIPOS>MOLECULE
L00
   29    31     1     0     0
SMALL
bcc


@<TRIPOS>ATOM
      1 H1           1.1030    -1.8390     1.9200 ha         1 L00       0.132000
      2 C2           0.5870    -1.1530     1.2320 ca         1 L00      -0.083000
      3 C3          -0.7840    -0.9630     1.3100 ca         1 L00      -0.160000
      4 H4          -1.3690    -1.5040     2.0680 ha         1 L00       0.128000
      5 C5          -1.4520    -0.0870     0.4340 ca         1 L00      -0.114000
      6 H6          -2.5410     0.0340     0.5310 ha         1 L00       0.127000
      7 C7          -0.7720     0.6230    -0.5420 ca         1 L00      -0.147000
      8 H8          -1.3000     1.3050    -1.2220 ha         1 L00       0.130000
      9 C9           0.6170     0.4410    -0.6330 ca         1 L00      -0.043200
     10 N10          1.5580     1.0070    -1.4930 na         1 L00      -0.187400
     11 C11          1.3120    -0.4580     0.2630 ca         1 L00      -0.093800
     12 C12          2.7070    -0.4060    -0.1040 cc         1 L00      -0.187200
     13 C13          2.8230     0.4870    -1.1710 cd         1 L00      -0.053300
     14 H14          1.3760     1.6410    -2.2240 hn         1 L00       0.298700
     15 H15          3.5110    -0.9610     0.3660 ha         1 L00       0.154000
     16 C16          4.0590     0.8770    -1.8970 c3         1 L00      -0.010500
     17 H17          4.8980     0.2610    -1.4700 hc         1 L00       0.070700
     18 C18          3.9500     0.6210    -3.4040 c3         1 L00      -0.081400
     19 H19          4.9000     0.1540    -3.7700 hc         1 L00       0.051200
     20 H20          3.1180    -0.0860    -3.6430 hc         1 L00       0.051200
     21 C21          3.7400     1.9710    -4.0740 c3         1 L00      -0.083400
     22 H22          4.3090     2.0330    -5.0340 hc         1 L00       0.041700
     23 H23          2.6570     2.1150    -4.3190 hc         1 L00       0.041700
     24 C24          4.2040     3.0360    -3.0910 c3         1 L00      -0.083400
     25 H25          5.1720     3.4830    -3.4300 hc         1 L00       0.041700
     26 H26          3.4590     3.8690    -3.0300 hc         1 L00       0.041700
     27 C27          4.3800     2.3680    -1.7330 c3         1 L00      -0.081400
     28 H28          5.4330     2.4880    -1.3750 hc         1 L00       0.051200
     29 H29          3.7150     2.8400    -0.9680 hc         1 L00       0.051200
@<TRIPOS>BOND
     1     1     2 1   
     2     2     3 ar  
     3     2    11 ar  
     4     3     4 1   
     5     3     5 ar  
     6     5     6 1   
     7     5     7 ar  
     8     7     8 1   
     9     7     9 ar  
    10     9    10 1   
    11     9    11 ar  
    12    10    13 1   
    13    10    14 1   
    14    11    12 1   
    15    12    13 2   
    16    12    15 1   
    17    13    16 1   
    18    16    17 1   
    19    16    18 1   
    20    16    27 1   
    21    18    19 1   
    22    18    20 1   
    23    18    21 1   
    24    21    22 1   
    25    21    23 1   
    26    21    24 1   
    27    24    25 1   
    28    24    26 1   
    29    24    27 1   
    30    27    28 1   
    31    27    29 1   
@<TRIPOS>SUBSTRUCTURE
     1 L00         1 TEMP              0 ****  ****    0 ROOT
