@<TRIPOS>MOLECULE
L02
   19    20     1     0     0
SMALL
bcc


@<TRIPOS>ATOM
      1 C            1.2700    -0.1550     0.1940 c3         1 L02      -0.043900
      2 C1           2.7030    -0.0190    -0.1620 cc         1 L02      -0.059300
      3 N            3.5000    -1.1160    -0.3830 na         1 L02      -0.194400
      4 C2           4.7770    -0.7250    -0.7190 ca         1 L02      -0.042200
      5 C3           5.9020    -1.4920    -1.0380 ca         1 L02      -0.148000
      6 C4           7.0830    -0.8100    -1.3480 ca         1 L02      -0.113000
      7 C5           7.1330     0.5820    -1.3340 ca         1 L02      -0.160000
      8 C6           5.9980     1.3340    -1.0090 ca         1 L02      -0.083000
      9 C7           4.7970     0.6680    -0.6970 ca         1 L02      -0.093800
     10 C8           3.4890     1.1000    -0.3410 cd         1 L02      -0.185200
     11 H            0.7990     0.8270     0.3040 hc         1 L02       0.051367
     12 H1           1.1570    -0.6950     1.1380 hc         1 L02       0.051367
     13 H2           0.7310    -0.7020    -0.5860 hc         1 L02       0.051367
     14 H3           3.1970    -2.0780    -0.3210 hn         1 L02       0.295700
     15 H4           5.8670    -2.5770    -1.0500 ha         1 L02       0.130000
     16 H5           7.9760    -1.3760    -1.6050 ha         1 L02       0.128000
     17 H6           8.0610     1.0920    -1.5800 ha         1 L02       0.128000
     18 H7           6.0430     2.4190    -1.0010 ha         1 L02       0.133000
     19 H8           3.1600     2.1260    -0.2370 ha         1 L02       0.155000
@<TRIPOS>BOND
     1     1     2 1   
     2     1    11 1   
     3     1    12 1   
     4     1    13 1   
     5     2     3 1   
     6     2    10 2   
     7     3     4 1   
     8     3    14 1   
     9     4     5 ar  
    10     4     9 ar  
    11     5     6 ar  
    12     5    15 1   
    13     6     7 ar  
    14     6    16 1   
    15     7     8 ar  
    16     7    17 1   
    17     8     9 ar  
    18     8    18 1   
    19     9    10 1   
    20    10    19 1   
@<TRIPOS>SUBSTRUCTURE
     1 L02         1 TEMP              0 ****  ****    0 ROOT
