@<TRIPOS>MOLECULE
L01
5 4 1 0 1
SMALL
USER_CHARGES
@<TRIPOS>CRYSIN
   31.7068    31.7849    31.3493    90.0000    90.0000    90.0000  1  1
@<TRIPOS>ATOM
       1 C1          15.4037    15.8066    15.3655 c3            1 L01       -0.108400
       2 H2          16.4967    15.8046    15.3505 hc            1 L01        0.027100
       3 H3          15.0317    14.9206    14.8465 hc            1 L01        0.027100
       4 H4          15.0347    16.7036    14.8645 hc            1 L01        0.027100
       5 H5          15.0547    15.7966    16.3995 hc            1 L01        0.027100
@<TRIPOS>BOND
       1        1        2 1
       2        1        3 1
       3        1        4 1
       4        1        5 1
@<TRIPOS>SUBSTRUCTURE
       1 L01             1 RESIDUE    0 **** ROOT      0
