@<TRIPOS>MOLECULE
L03
50 53 1 0 1
SMALL
USER_CHARGES
@<TRIPOS>CRYSIN
   88.4505    88.4505    88.4505   109.4712   109.4712   109.4712  1  1
@<TRIPOS>ATOM
       1 C1          43.1514    46.2858    46.0095 ca            1 L03        0.927900
       2 C2          39.8277    47.7814    43.7382 cc            1 L03        0.393700
       3 C3          43.4099    43.5975    42.9680 c3            1 L03        0.136400
       4 C4          43.1222    42.6782    41.6930 c3            1 L03       -0.071700
       5 C5          44.1971    41.5294    41.6145 c3            1 L03       -0.074400
       6 C6          43.9845    40.8250    40.3201 c3            1 L03       -0.075900
       7 C7          42.5523    40.2300    40.1872 c3            1 L03       -0.078400
       8 C8          41.4330    41.3188    40.2512 c3            1 L03       -0.075900
       9 C9          41.6679    42.1578    41.5344 c3            1 L03       -0.074400
      10 C10         47.5628    46.1703    48.2143 ca            1 L03        0.002500
      11 C11         47.9965    44.9838    47.5528 ca            1 L03       -0.414500
      12 C12         47.1698    44.1666    46.8136 ca            1 L03        0.002500
      13 C13         45.8106    44.5512    46.6396 ca            1 L03       -0.183000
      14 N1          43.2764    45.4036    45.0574 nb            1 L03       -0.826000
      15 C14         42.4349    45.5447    44.0576 ca            1 L03        0.758600
      16 O1          42.3589    44.6451    43.0098 os            1 L03       -0.416100
      17 C15         41.4890    46.5417    44.1242 ca            1 L03       -0.209200
      18 N2          40.4564    46.6654    43.2580 nd            1 L03       -0.499100
      19 N3          40.3768    48.1036    44.9726 na            1 L03       -0.382000
      20 C16         41.4507    47.3332    45.1506 ca            1 L03        0.472800
      21 N4          42.2508    47.2766    46.1993 nb            1 L03       -0.770000
      22 N5          43.9425    46.1022    47.0759 nu            1 L03       -0.730300
      23 C17         45.2873    45.6991    47.2898 ca            1 L03        0.224600
      24 C18         46.1563    46.4850    48.0769 ca            1 L03       -0.183000
      25 H1          38.9355    48.2255    43.3169 h5            1 L03        0.075800
      26 H2          43.3069    42.9885    43.8747 h1            1 L03        0.054700
      27 H3          44.3913    44.0869    42.9919 h1            1 L03        0.054700
      28 H4          43.3097    43.3163    40.8206 hc            1 L03        0.071700
      29 H5          45.0937    42.1612    41.5982 hc            1 L03        0.044200
      30 H6          44.2875    40.7992    42.4282 hc            1 L03        0.044200
      31 H7          44.2090    41.5511    39.5291 hc            1 L03        0.041700
      32 H8          44.7391    40.0366    40.2095 hc            1 L03        0.041700
      33 H9          42.6256    39.7192    39.2191 hc            1 L03        0.040200
      34 H10         42.3917    39.4115    40.8997 hc            1 L03        0.040200
      35 H11         41.5371    41.9510    39.3608 hc            1 L03        0.041700
      36 H12         40.4582    40.8158    40.2555 hc            1 L03        0.041700
      37 H13         41.3486    41.5304    42.3756 hc            1 L03        0.044200
      38 H14         40.9883    43.0174    41.5860 hc            1 L03        0.044200
      39 H15         48.2019    46.8567    48.7619 ha            1 L03        0.154000
      40 H16         47.6206    43.2646    46.4104 ha            1 L03        0.154000
      41 H17         45.1597    43.9114    46.0511 ha            1 L03        0.151000
      42 H18         39.9345    48.8112    45.5417 hn            1 L03        0.319700
      43 H19         43.5951    46.7189    47.7992 hn            1 L03        0.455800
      44 H20         45.7310    47.3493    48.5783 ha            1 L03        0.151000
      45 S1          49.6680    44.4987    47.8022 sy            1 L03        1.532200
      46 O2          50.3792    45.4193    48.6887 o             1 L03       -0.660800
      47 O3          49.9749    43.1215    47.6905 o             1 L03       -0.660800
      48 N6          50.3530    44.9308    46.3789 n8            1 L03       -1.026700
      49 H21         50.3671    45.9363    46.5431 hn            1 L03        0.445800
      50 H22         51.2890    44.7567    46.7421 hn            1 L03        0.445800
@<TRIPOS>BOND
       1       45       46 1
       2       45       47 1
       3       45       48 1
       4       23       24 1
       5       22       23 1
       6       20       21 1
       7       19       20 1
       8       17       18 1
       9       17       20 1
      10       15       16 1
      11       15       17 1
      12       14       15 1
      13       13       23 1
      14       12       13 1
      15       11       12 1
      16       11       45 1
      17       10       11 1
      18       10       24 1
      19        8        9 1
      20        7        8 1
      21        6        7 1
      22        5        6 1
      23        4        5 1
      24        4        9 1
      25        3        4 1
      26        3       16 1
      27        2       18 1
      28        2       19 1
      29        1       14 1
      30        1       21 1
      31        1       22 1
      32       48       49 1
      33       48       50 1
      34       24       44 1
      35       22       43 1
      36       19       42 1
      37       13       41 1
      38       12       40 1
      39       10       39 1
      40        9       37 1
      41        9       38 1
      42        8       35 1
      43        8       36 1
      44        7       33 1
      45        7       34 1
      46        6       31 1
      47        6       32 1
      48        5       29 1
      49        5       30 1
      50        4       28 1
      51        3       26 1
      52        3       27 1
      53        2       25 1
@<TRIPOS>SUBSTRUCTURE
       1 L03             1 RESIDUE    0 **** ROOT      0
