@<TRIPOS>MOLECULE
L04
46 49 1 0 1
SMALL
USER_CHARGES
@<TRIPOS>CRYSIN
   88.4878    88.4878    88.4878   109.4712   109.4712   109.4712  1  1
@<TRIPOS>ATOM
       1 C1          43.5315    46.4718    46.3008 ca            1 L04        0.911900
       2 C2          40.1771    48.1279    44.1358 cc            1 L04        0.389700
       3 C3          44.4292    44.6302    42.8097 c3            1 L04        0.136400
       4 C4          44.2359    43.5982    41.6928 c3            1 L04       -0.071700
       5 C5          45.5104    42.6984    41.6110 c3            1 L04       -0.073400
       6 C6          45.3411    41.4741    40.7288 c3            1 L04       -0.075900
       7 C7          43.9616    40.7376    40.8281 c3            1 L04       -0.077400
       8 C8          42.7516    41.6431    40.8426 c3            1 L04       -0.075900
       9 C9          42.9210    42.7087    41.9500 c3            1 L04       -0.073400
      10 C10         47.4104    44.6133    48.6101 ca            1 L04       -0.176500
      11 C11         47.6155    43.4528    47.8425 ca            1 L04        0.119100
      12 C12         46.6381    43.1955    46.8329 ca            1 L04       -0.176500
      13 C13         45.5347    44.0781    46.6588 ca            1 L04       -0.094500
      14 N1          43.8203    45.8925    45.1602 nb            1 L04       -0.820000
      15 C14         43.0254    46.0917    44.1721 ca            1 L04        0.754600
      16 O1          43.2403    45.4178    42.9516 os            1 L04       -0.419100
      17 C15         41.9331    46.9250    44.3392 ca            1 L04       -0.213200
      18 N2          41.0522    47.3748    43.4105 nd            1 L04       -0.501100
      19 N3          40.4394    48.0569    45.5300 na            1 L04       -0.385000
      20 C16         41.6666    47.3854    45.5869 ca            1 L04        0.473800
      21 N4          42.4510    47.1981    46.6228 nb            1 L04       -0.776000
      22 N5          44.3260    46.1748    47.3168 nu            1 L04       -0.696300
      23 C17         45.3776    45.2784    47.4382 ca            1 L04        0.086600
      24 C18         46.4377    45.5217    48.3879 ca            1 L04       -0.094500
      25 H1          39.5088    48.8615    43.7045 h5            1 L04        0.073800
      26 H2          44.6645    44.0989    43.7403 h1            1 L04        0.055200
      27 H3          45.2575    45.3137    42.5858 h1            1 L04        0.055200
      28 H4          44.1338    44.1502    40.7503 hc            1 L04        0.071700
      29 H5          46.3071    43.3725    41.2729 hc            1 L04        0.044200
      30 H6          45.8582    42.3154    42.5783 hc            1 L04        0.044200
      31 H7          45.3198    41.7587    39.6696 hc            1 L04        0.041200
      32 H8          46.2113    40.8113    40.8112 hc            1 L04        0.041200
      33 H9          43.8332    40.0969    39.9470 hc            1 L04        0.039200
      34 H10         43.8573    40.0764    41.6972 hc            1 L04        0.039200
      35 H11         42.6375    42.1556    39.8794 hc            1 L04        0.041200
      36 H12         41.8373    41.0886    41.0876 hc            1 L04        0.041200
      37 H13         42.9203    42.1510    42.8947 hc            1 L04        0.044200
      38 H14         42.0459    43.3597    42.0677 hc            1 L04        0.044200
      39 H15         48.1627    44.8376    49.3605 ha            1 L04        0.144500
      40 H16         46.8373    42.3140    46.2307 ha            1 L04        0.144500
      41 H17         44.7489    43.7324    45.9936 ha            1 L04        0.145000
      42 H18         40.0343    48.7520    46.1406 hn            1 L04        0.317700
      43 H19         43.9878    46.5987    48.1713 hn            1 L04        0.434800
      44 H20         46.2601    46.3804    49.0286 ha            1 L04        0.145000
      45 O2          48.6671    42.5521    48.0630 oh            1 L04       -0.496100
      46 H21         48.3009    41.6948    47.7844 ho            1 L04        0.420000
@<TRIPOS>BOND
       1       23       24 1
       2       22       23 1
       3       20       21 1
       4       19       20 1
       5       17       18 1
       6       17       20 1
       7       15       16 1
       8       15       17 1
       9       14       15 1
      10       13       23 1
      11       12       13 1
      12       11       12 1
      13       11       45 1
      14       10       11 1
      15       10       24 1
      16        8        9 1
      17        7        8 1
      18        6        7 1
      19        5        6 1
      20        4        5 1
      21        4        9 1
      22        3        4 1
      23        3       16 1
      24        2       18 1
      25        2       19 1
      26        1       14 1
      27        1       21 1
      28        1       22 1
      29       45       46 1
      30       24       44 1
      31       22       43 1
      32       19       42 1
      33       13       41 1
      34       12       40 1
      35       10       39 1
      36        9       37 1
      37        9       38 1
      38        8       35 1
      39        8       36 1
      40        7       33 1
      41        7       34 1
      42        6       31 1
      43        6       32 1
      44        5       29 1
      45        5       30 1
      46        4       28 1
      47        3       26 1
      48        3       27 1
      49        2       25 1
@<TRIPOS>SUBSTRUCTURE
       1 L04             1 RESIDUE    0 **** ROOT      0
