@<TRIPOS>MOLECULE
L05
50 53 1 0 1
SMALL
USER_CHARGES
@<TRIPOS>CRYSIN
   88.5525    88.5525    88.5525   109.4712   109.4712   109.4712  1  1
@<TRIPOS>ATOM
       1 C1          43.3824    45.6343    46.3086 ca            1 L05        0.910900
       2 C2          40.3277    47.7488    44.2302 cc            1 L05        0.392700
       3 C3          41.8675    44.4453    41.9660 c3            1 L05        0.136400
       4 C4          42.3973    43.4461    40.9286 c3            1 L05       -0.071700
       5 C5          43.9720    43.4771    40.8412 c3            1 L05       -0.073900
       6 C6          44.4429    42.5686    39.7583 c3            1 L05       -0.075900
       7 C7          43.8718    41.0859    39.8264 c3            1 L05       -0.078400
       8 C8          42.2933    41.1392    39.8282 c3            1 L05       -0.075900
       9 C9          41.7895    41.9987    40.9159 c3            1 L05       -0.073900
      10 C10         47.9424    44.6713    47.9871 ca            1 L05       -0.366500
      11 C11         48.1441    43.5020    47.3078 ca            1 L05       -0.029000
      12 C12         47.0941    42.9233    46.5854 ca            1 L05       -0.150000
      13 C13         45.8229    43.5835    46.5904 ca            1 L05       -0.044000
      14 N1          43.4160    44.8202    45.2380 nb            1 L05       -0.824000
      15 C14         42.5531    45.1059    44.2772 ca            1 L05        0.756600
      16 O1          42.3448    44.1391    43.2980 os            1 L05       -0.417100
      17 C15         41.7786    46.2559    44.4207 ca            1 L05       -0.208200
      18 N2          40.8338    46.6892    43.5642 nd            1 L05       -0.500100
      19 N3          40.9273    47.9723    45.4111 na            1 L05       -0.383000
      20 C16         41.8788    47.0044    45.5222 ca            1 L05        0.471800
      21 N4          42.7595    46.8227    46.4957 nb            1 L05       -0.769000
      22 N5          44.3662    45.4634    47.2106 nu            1 L05       -0.702300
      23 C17         45.5725    44.7312    47.2273 ca            1 L05        0.104600
      24 C18         46.6629    45.3204    47.9422 ca            1 L05       -0.057000
      25 H1          39.6586    48.5179    43.8678 h5            1 L05        0.074800
      26 H2          42.2295    45.4146    41.6018 h1            1 L05        0.055200
      27 H3          40.7774    44.5484    42.0321 h1            1 L05        0.055200
      28 H4          42.1223    43.8521    39.9473 hc            1 L05        0.072700
      29 H5          44.2705    44.5251    40.7142 hc            1 L05        0.044200
      30 H6          44.3215    43.1396    41.8248 hc            1 L05        0.044200
      31 H7          44.1136    43.0374    38.8228 hc            1 L05        0.041700
      32 H8          45.5363    42.4846    39.7297 hc            1 L05        0.041700
      33 H9          44.2673    40.4729    39.0071 hc            1 L05        0.039200
      34 H10         44.3761    40.6274    40.6860 hc            1 L05        0.039200
      35 H11         41.9335    41.6000    38.9000 hc            1 L05        0.041700
      36 H12         41.8571    40.1474    40.0001 hc            1 L05        0.041700
      37 H13         42.0350    41.4499    41.8335 hc            1 L05        0.044200
      38 H14         40.6938    42.0386    40.9513 hc            1 L05        0.044200
      39 H15         49.1630    43.1270    47.2812 ha            1 L05        0.152000
      40 H16         47.2484    42.0038    46.0285 ha            1 L05        0.143000
      41 H17         45.0400    43.0192    46.0925 ha            1 L05        0.158000
      42 H18         40.9638    48.8869    45.8380 hn            1 L05        0.318700
      43 H19         44.2005    46.1132    47.9685 hn            1 L05        0.437800
      44 H20         46.5655    46.2146    48.5507 ha            1 L05        0.156000
      45 S1          49.2460    45.4570    48.9218 sy            1 L05        1.526200
      46 O2          50.5785    45.0437    48.4556 o             1 L05       -0.657300
      47 O3          48.9530    46.7141    49.5626 o             1 L05       -0.657300
      48 N6          49.2276    44.6003    50.2451 n8            1 L05       -1.026700
      49 H21         48.2976    44.9956    50.3762 hn            1 L05        0.447800
      50 H22         49.6955    45.2333    50.8922 hn            1 L05        0.447800
@<TRIPOS>BOND
       1       45       46 1
       2       45       47 1
       3       45       48 1
       4       23       24 1
       5       22       23 1
       6       20       21 1
       7       19       20 1
       8       17       18 1
       9       17       20 1
      10       15       16 1
      11       15       17 1
      12       14       15 1
      13       13       23 1
      14       12       13 1
      15       11       12 1
      16       10       11 1
      17       10       24 1
      18       10       45 1
      19        8        9 1
      20        7        8 1
      21        6        7 1
      22        5        6 1
      23        4        5 1
      24        4        9 1
      25        3        4 1
      26        3       16 1
      27        2       18 1
      28        2       19 1
      29        1       14 1
      30        1       21 1
      31        1       22 1
      32       48       49 1
      33       48       50 1
      34       24       44 1
      35       22       43 1
      36       19       42 1
      37       13       41 1
      38       12       40 1
      39       11       39 1
      40        9       37 1
      41        9       38 1
      42        8       35 1
      43        8       36 1
      44        7       33 1
      45        7       34 1
      46        6       31 1
      47        6       32 1
      48        5       29 1
      49        5       30 1
      50        4       28 1
      51        3       26 1
      52        3       27 1
      53        2       25 1
@<TRIPOS>SUBSTRUCTURE
       1 L05             1 RESIDUE    0 **** ROOT      0
