@<TRIPOS>MOLECULE
L06
49 52 1 0 1
SMALL
USER_CHARGES
@<TRIPOS>CRYSIN
   88.5777    88.5777    88.5777   109.4712   109.4712   109.4712  1  1
@<TRIPOS>ATOM
       1 C1          43.7456    46.8618    46.0096 ca            1 L06        0.919900
       2 C2          40.2472    48.4472    44.1201 cc            1 L06        0.391700
       3 C3          42.6120    44.1488    42.9823 c3            1 L06        0.137400
       4 C4          42.9364    43.4535    41.6907 c3            1 L06       -0.072700
       5 C5          44.4545    43.4268    41.4655 c3            1 L06       -0.073400
       6 C6          44.9178    42.6042    40.2967 c3            1 L06       -0.075900
       7 C7          44.3353    41.1559    40.3787 c3            1 L06       -0.078400
       8 C8          42.8226    41.2132    40.4621 c3            1 L06       -0.075900
       9 C9          42.4326    42.0437    41.6818 c3            1 L06       -0.073400
      10 C10         47.5604    44.9493    48.3147 ca            1 L06       -0.077500
      11 C11         47.4701    43.6680    47.7889 ca            1 L06       -0.155600
      12 C12         46.3820    43.3738    47.0311 ca            1 L06       -0.077500
      13 C13         45.3702    44.3169    46.8034 ca            1 L06       -0.150000
      14 N1          43.8171    46.0304    45.0062 nb            1 L06       -0.824000
      15 C14         42.9519    46.2979    43.9973 ca            1 L06        0.756600
      16 O1          43.0578    45.5440    42.8565 os            1 L06       -0.417100
      17 C15         41.9811    47.2488    44.1662 ca            1 L06       -0.211200
      18 N2          40.8547    47.4983    43.4038 nd            1 L06       -0.500100
      19 N3          40.9086    48.7111    45.2341 na            1 L06       -0.383000
      20 C16         41.9692    47.9082    45.3551 ca            1 L06        0.473800
      21 N4          42.8694    47.7715    46.2936 nb            1 L06       -0.772000
      22 N5          44.6635    46.7068    46.9238 nu            1 L06       -0.713300
      23 C17         45.5179    45.6418    47.2592 ca            1 L06        0.161600
      24 C18         46.6375    45.9500    48.1035 ca            1 L06       -0.150000
      25 H1          39.2582    48.8167    43.8834 h5            1 L06        0.074800
      26 H2          41.5289    44.0505    43.1262 h1            1 L06        0.054700
      27 H3          43.1093    43.5903    43.7849 h1            1 L06        0.054700
      28 H4          42.4594    44.0507    40.9039 hc            1 L06        0.072700
      29 H5          44.8004    44.4122    41.1296 hc            1 L06        0.043700
      30 H6          45.0391    43.0391    42.3088 hc            1 L06        0.043700
      31 H7          44.7108    43.1519    39.3690 hc            1 L06        0.041950
      32 H8          46.0006    42.4459    40.2195 hc            1 L06        0.041950
      33 H9          44.6255    40.5897    39.4851 hc            1 L06        0.039700
      34 H10         44.8625    40.6708    41.2095 hc            1 L06        0.039700
      35 H11         42.3775    41.6824    39.5761 hc            1 L06        0.041950
      36 H12         42.3524    40.2275    40.5662 hc            1 L06        0.041950
      37 H13         42.6908    41.6322    42.6653 hc            1 L06        0.043700
      38 H14         41.3360    42.0588    41.6569 hc            1 L06        0.043700
      39 H15         48.3916    45.2029    48.9661 ha            1 L06        0.147000
      40 H16         46.1774    42.3878    46.6245 ha            1 L06        0.147000
      41 H17         44.5549    43.9248    46.2026 ha            1 L06        0.148000
      42 H18         40.6479    49.5236    45.7745 hn            1 L06        0.318700
      43 H19         44.5471    47.3829    47.6677 hn            1 L06        0.444800
      44 H20         46.6667    46.9710    48.4725 ha            1 L06        0.148000
      45 O2          49.5169    43.0190    48.8200 o             1 L06       -0.611100
      46 C19         48.5782    42.7233    48.0527 c             1 L06        0.672700
      47 N6          48.4470    41.4522    47.5480 nt            1 L06       -0.674000
      48 H21         47.6216    41.2045    47.0154 hn            1 L06        0.312000
      49 H22         49.3367    40.9702    47.4992 hn            1 L06        0.312000
@<TRIPOS>BOND
       1       46       47 1
       2       45       46 1
       3       23       24 1
       4       22       23 1
       5       20       21 1
       6       19       20 1
       7       17       18 1
       8       17       20 1
       9       15       16 1
      10       15       17 1
      11       14       15 1
      12       13       23 1
      13       12       13 1
      14       11       12 1
      15       11       46 1
      16       10       11 1
      17       10       24 1
      18        8        9 1
      19        7        8 1
      20        6        7 1
      21        5        6 1
      22        4        5 1
      23        4        9 1
      24        3        4 1
      25        3       16 1
      26        2       18 1
      27        2       19 1
      28        1       14 1
      29        1       21 1
      30        1       22 1
      31       47       48 1
      32       47       49 1
      33       24       44 1
      34       22       43 1
      35       19       42 1
      36       13       41 1
      37       12       40 1
      38       10       39 1
      39        9       37 1
      40        9       38 1
      41        8       35 1
      42        8       36 1
      43        7       33 1
      44        7       34 1
      45        6       31 1
      46        6       32 1
      47        5       29 1
      48        5       30 1
      49        4       28 1
      50        3       26 1
      51        3       27 1
      52        2       25 1
@<TRIPOS>SUBSTRUCTURE
       1 L06             1 RESIDUE    0 **** ROOT      0
