@<TRIPOS>MOLECULE
L08
49 52 1 0 1
SMALL
USER_CHARGES
@<TRIPOS>CRYSIN
   88.4398    88.4398    88.4398   109.4712   109.4712   109.4712  1  1
@<TRIPOS>ATOM
       1 C1          43.2445    46.2791    46.4160 ca            1 L08        0.918900
       2 C2          39.9418    47.8509    44.1913 cc            1 L08        0.389700
       3 C3          43.7879    44.1621    43.1258 c3            1 L08        0.137400
       4 C4          43.8306    43.5775    41.7138 c3            1 L08       -0.072700
       5 C5          45.2168    42.9434    41.5163 c3            1 L08       -0.073900
       6 C6          45.4366    42.2224    40.1794 c3            1 L08       -0.075900
       7 C7          44.2846    41.0914    40.0328 c3            1 L08       -0.078400
       8 C8          42.8672    41.6731    40.2494 c3            1 L08       -0.075900
       9 C9          42.7493    42.4836    41.5703 c3            1 L08       -0.073900
      10 C10         47.4376    45.3857    48.8687 ca            1 L08       -0.087000
      11 C11         47.7070    44.1363    48.2919 ca            1 L08       -0.165000
      12 C12         46.8221    43.6402    47.3542 ca            1 L08        0.131100
      13 C13         45.6338    44.3969    46.9903 ca            1 L08       -0.182000
      14 N1          43.3980    45.4592    45.4264 nb            1 L08       -0.822000
      15 C14         42.5591    45.6423    44.4452 ca            1 L08        0.755600
      16 O1          42.6640    44.9593    43.3506 os            1 L08       -0.418100
      17 C15         41.5082    46.5134    44.5678 ca            1 L08       -0.213200
      18 N2          40.6902    46.9234    43.5701 nd            1 L08       -0.501100
      19 N3          40.3801    48.1527    45.5147 na            1 L08       -0.385000
      20 C16         41.3585    47.2248    45.6795 ca            1 L08        0.473800
      21 N4          42.2821    47.2028    46.6185 nb            1 L08       -0.775000
      22 N5          44.1408    46.2488    47.4093 nu            1 L08       -0.709300
      23 C17         45.3290    45.5950    47.6037 ca            1 L08        0.166600
      24 C18         46.2620    46.0815    48.5877 ca            1 L08       -0.200000
      25 H1          39.0403    48.2548    43.7497 h5            1 L08        0.073800
      26 H2          43.7303    43.4253    43.9365 h1            1 L08        0.054200
      27 H3          44.7322    44.7188    43.1694 h1            1 L08        0.054200
      28 H4          43.8127    44.3119    40.8991 hc            1 L08        0.071700
      29 H5          46.0017    43.7088    41.5542 hc            1 L08        0.044200
      30 H6          45.5183    42.2625    42.3218 hc            1 L08        0.044200
      31 H7          45.3214    42.9825    39.3968 hc            1 L08        0.041450
      32 H8          46.4773    41.8885    40.0847 hc            1 L08        0.041450
      33 H9          44.4847    40.6766    39.0372 hc            1 L08        0.038700
      34 H10         44.5282    40.2694    40.7172 hc            1 L08        0.038700
      35 H11         42.7009    42.3739    39.4220 hc            1 L08        0.041450
      36 H12         42.1322    40.8607    40.1937 hc            1 L08        0.041450
      37 H13         42.6243    41.8009    42.4200 hc            1 L08        0.044200
      38 H14         41.7701    42.9739    41.5064 hc            1 L08        0.044200
      39 H15         48.2487    45.8923    49.3833 ha            1 L08        0.136000
      40 H16         48.6184    43.5518    48.3748 ha            1 L08        0.151000
      41 H17         44.9549    43.9292    46.2834 ha            1 L08        0.158000
      42 H18         39.8659    48.6283    46.2423 hn            1 L08        0.317700
      43 H19         43.9893    46.9125    48.1581 hn            1 L08        0.440800
      44 H20         46.0893    47.0427    49.0626 ha            1 L08        0.134000
      45 O2          47.1463    42.5209    46.6336 os            1 L08       -0.327900
      46 C19         46.4767    42.0937    45.4636 c3            1 L08        0.112700
      47 H21         46.4572    42.8816    44.7006 h1            1 L08        0.045367
      48 H22         47.0244    41.2560    45.0145 h1            1 L08        0.045367
      49 H23         45.4969    41.7111    45.7751 h1            1 L08        0.045367
@<TRIPOS>BOND
       1       45       46 1
       2       23       24 1
       3       22       23 1
       4       20       21 1
       5       19       20 1
       6       17       18 1
       7       17       20 1
       8       15       16 1
       9       15       17 1
      10       14       15 1
      11       13       23 1
      12       12       13 1
      13       12       45 1
      14       11       12 1
      15       10       11 1
      16       10       24 1
      17        8        9 1
      18        7        8 1
      19        6        7 1
      20        5        6 1
      21        4        5 1
      22        4        9 1
      23        3        4 1
      24        3       16 1
      25        2       18 1
      26        2       19 1
      27        1       14 1
      28        1       21 1
      29        1       22 1
      30       46       47 1
      31       46       48 1
      32       46       49 1
      33       24       44 1
      34       22       43 1
      35       19       42 1
      36       13       41 1
      37       11       40 1
      38       10       39 1
      39        9       37 1
      40        9       38 1
      41        8       35 1
      42        8       36 1
      43        7       33 1
      44        7       34 1
      45        6       31 1
      46        6       32 1
      47        5       29 1
      48        5       30 1
      49        4       28 1
      50        3       26 1
      51        3       27 1
      52        2       25 1
@<TRIPOS>SUBSTRUCTURE
       1 L08             1 RESIDUE    0 **** ROOT      0
