@<TRIPOS>MOLECULE
L09
49 52 1 0 1
SMALL
USER_CHARGES
@<TRIPOS>CRYSIN
   88.5500    88.5500    88.5500   109.4712   109.4712   109.4712  1  1
@<TRIPOS>ATOM
       1 C1          43.8025    46.1503    46.3862 ca            1 L09        0.916900
       2 C2          40.1494    47.7483    44.5851 cc            1 L09        0.389700
       3 C3          44.3528    44.4803    42.6564 c3            1 L09        0.137400
       4 C4          43.5536    43.4970    41.7613 c3            1 L09       -0.072700
       5 C5          44.6018    42.4345    41.3162 c3            1 L09       -0.073900
       6 C6          44.0244    41.3016    40.4856 c3            1 L09       -0.075900
       7 C7          42.8086    40.5863    41.1468 c3            1 L09       -0.078400
       8 C8          41.7294    41.6903    41.5291 c3            1 L09       -0.075900
       9 C9          42.2906    42.8369    42.3908 c3            1 L09       -0.073900
      10 C10         48.4686    46.5356    47.5014 ca            1 L09       -0.101000
      11 C11         48.7530    45.1729    47.1786 ca            1 L09       -0.131000
      12 C12         47.7669    44.1751    46.8148 ca            1 L09        0.006900
      13 C13         46.4328    44.6400    46.7507 ca            1 L09       -0.121000
      14 N1          43.9876    45.5371    45.2003 nb            1 L09       -0.821000
      15 C14         43.0693    45.8491    44.2543 ca            1 L09        0.754600
      16 O1          43.3392    45.5345    42.9745 os            1 L09       -0.418100
      17 C15         41.8922    46.6062    44.6091 ca            1 L09       -0.213200
      18 N2          40.9694    47.1323    43.7555 nd            1 L09       -0.501100
      19 N3          40.7034    47.8975    45.8225 na            1 L09       -0.385000
      20 C16         41.8661    47.1318    45.8225 ca            1 L09        0.473800
      21 N4          42.8094    46.9726    46.7163 nb            1 L09       -0.775000
      22 N5          44.8160    46.3978    47.2143 nu            1 L09       -0.706300
      23 C17         46.1536    45.9668    47.1079 ca            1 L09        0.146600
      24 C18         47.1891    46.9232    47.5762 ca            1 L09       -0.175000
      25 H1          39.1723    48.1253    44.3134 h5            1 L09        0.073800
      26 H2          44.7637    43.9466    43.5222 h1            1 L09        0.054200
      27 H3          45.1404    44.9413    42.0476 h1            1 L09        0.054200
      28 H4          43.2701    44.0060    40.8318 hc            1 L09        0.071700
      29 H5          45.3698    42.9457    40.7226 hc            1 L09        0.044450
      30 H6          45.1248    41.9761    42.1646 hc            1 L09        0.044450
      31 H7          43.7845    41.7411    39.5095 hc            1 L09        0.041450
      32 H8          44.8938    40.6379    40.4019 hc            1 L09        0.041450
      33 H9          42.2894    40.0036    40.3759 hc            1 L09        0.038700
      34 H10         43.0937    39.9986    42.0282 hc            1 L09        0.038700
      35 H11         41.3761    42.1970    40.6225 hc            1 L09        0.041450
      36 H12         40.8574    41.2652    42.0413 hc            1 L09        0.041450
      37 H13         42.6344    42.3350    43.3036 hc            1 L09        0.044450
      38 H14         41.5150    43.6008    42.5258 hc            1 L09        0.044450
      39 H15         49.2180    47.2317    47.8664 ha            1 L09        0.135000
      40 H16         49.7884    44.8612    47.2798 ha            1 L09        0.144000
      41 H17         45.5677    44.0084    46.5719 ha            1 L09        0.152000
      42 H18         40.2980    48.4044    46.5963 hn            1 L09        0.317700
      43 H19         44.5815    47.0235    47.9744 hn            1 L09        0.438800
      44 H20         46.8843    47.9218    47.8750 ha            1 L09        0.134000
      45 S1          48.2154    42.4823    46.5289 ss            1 L09       -0.169000
      46 C19         46.7410    41.7826    45.8036 c3            1 L09       -0.070000
      47 H21         46.3761    42.2140    44.8633 h1            1 L09        0.070700
      48 H22         47.0684    40.7515    45.6220 h1            1 L09        0.070700
      49 H23         45.9199    41.8744    46.5252 h1            1 L09        0.070700
@<TRIPOS>BOND
       1       45       46 1
       2       23       24 1
       3       22       23 1
       4       20       21 1
       5       19       20 1
       6       17       18 1
       7       17       20 1
       8       15       16 1
       9       15       17 1
      10       14       15 1
      11       13       23 1
      12       12       13 1
      13       12       45 1
      14       11       12 1
      15       10       11 1
      16       10       24 1
      17        8        9 1
      18        7        8 1
      19        6        7 1
      20        5        6 1
      21        4        5 1
      22        4        9 1
      23        3        4 1
      24        3       16 1
      25        2       18 1
      26        2       19 1
      27        1       14 1
      28        1       21 1
      29        1       22 1
      30       46       47 1
      31       46       48 1
      32       46       49 1
      33       24       44 1
      34       22       43 1
      35       19       42 1
      36       13       41 1
      37       11       40 1
      38       10       39 1
      39        9       37 1
      40        9       38 1
      41        8       35 1
      42        8       36 1
      43        7       33 1
      44        7       34 1
      45        6       31 1
      46        6       32 1
      47        5       29 1
      48        5       30 1
      49        4       28 1
      50        3       26 1
      51        3       27 1
      52        2       25 1
@<TRIPOS>SUBSTRUCTURE
       1 L09             1 RESIDUE    0 **** ROOT      0
