@<TRIPOS>MOLECULE
LIG
45 48 1 0 1
SMALL
USER_CHARGES
@<TRIPOS>CRYSIN
   88.4934    88.4934    88.4934   109.4712   109.4712   109.4712  1  1
@<TRIPOS>ATOM
       1 C1          44.2049    46.6283    46.2796 ca            1 LIG        0.913900
       2 C2          40.7530    48.2944    44.0599 cc            1 LIG        0.390700
       3 C3          44.2283    43.8780    43.1408 c3            1 LIG        0.136400
       4 C4          43.9868    43.0649    41.8783 c3            1 LIG       -0.071700
       5 C5          44.8690    41.8053    41.8850 c3            1 LIG       -0.074400
       6 C6          44.4871    40.9267    40.6784 c3            1 LIG       -0.075400
       7 C7          42.9919    40.5319    40.7297 c3            1 LIG       -0.078400
       8 C8          42.1060    41.7780    40.7037 c3            1 LIG       -0.075400
       9 C9          42.5067    42.8719    41.6965 c3            1 LIG       -0.074400
      10 C10         48.0880    45.0175    49.0234 ca            1 LIG       -0.117000
      11 C11         48.3178    43.8194    48.3318 ca            1 LIG       -0.113000
      12 C12         47.4904    43.4843    47.2232 ca            1 LIG       -0.018900
      13 C13         46.4045    44.3312    46.9057 ca            1 LIG       -0.081000
      14 N1          44.2644    45.7905    45.2392 nb            1 LIG       -0.821000
      15 C14         43.3990    45.9859    44.1947 ca            1 LIG        0.757600
      16 O1          43.4291    45.1585    43.0988 os            1 LIG       -0.418100
      17 C15         42.4104    47.0156    44.2844 ca            1 LIG       -0.211200
      18 N2          41.4170    47.2954    43.4225 nd            1 LIG       -0.500100
      19 N3          41.2683    48.5154    45.3403 na            1 LIG       -0.384000
      20 C16         42.3869    47.6931    45.4944 ca            1 LIG        0.471800
      21 N4          43.2191    47.5075    46.5076 nb            1 LIG       -0.774000
      22 N5          44.9586    46.3529    47.3480 nu            1 LIG       -0.705300
      23 C17         46.0685    45.4792    47.6501 ca            1 LIG        0.131600
      24 C18         46.9944    45.8217    48.6535 ca            1 LIG       -0.154000
      25 H1          39.8347    48.7754    43.7500 h5            1 LIG        0.074800
      26 H2          43.9893    43.3134    44.0505 h1            1 LIG        0.057200
      27 H3          45.2942    44.1350    43.1084 h1            1 LIG        0.057200
      28 H4          44.2569    43.7467    41.0625 hc            1 LIG        0.069700
      29 H5          45.9404    41.9982    41.7501 hc            1 LIG        0.045450
      30 H6          44.6939    41.2421    42.8100 hc            1 LIG        0.045450
      31 H7          44.8648    41.4919    39.8174 hc            1 LIG        0.040700
      32 H8          45.0905    40.0117    40.7253 hc            1 LIG        0.040700
      33 H9          42.8619    39.8633    39.8697 hc            1 LIG        0.039200
      34 H10         42.8447    39.9117    41.6226 hc            1 LIG        0.039200
      35 H11         42.2612    42.2061    39.7056 hc            1 LIG        0.040700
      36 H12         41.0723    41.5590    40.9986 hc            1 LIG        0.040700
      37 H13         41.9974    42.5641    42.6181 hc            1 LIG        0.045450
      38 H14         42.0895    43.8631    41.4802 hc            1 LIG        0.045450
      39 H15         48.7852    45.2144    49.8325 ha            1 LIG        0.140000
      40 H16         48.9829    43.0550    48.7225 ha            1 LIG        0.148000
      41 H17         45.8093    44.1266    46.0207 ha            1 LIG        0.168000
      42 H18         40.9805    49.2825    45.9310 hn            1 LIG        0.317700
      43 H19         44.6560    46.8806    48.1567 hn            1 LIG        0.438800
      44 H20         46.7838    46.7260    49.2168 ha            1 LIG        0.137000
      45 Br1         47.7611    42.0863    46.0822 br            1 LIG       -0.088100
@<TRIPOS>BOND
       1       23       24 1
       2       22       23 1
       3       20       21 1
       4       19       20 1
       5       17       18 1
       6       17       20 1
       7       15       16 1
       8       15       17 1
       9       14       15 1
      10       13       23 1
      11       12       13 1
      12       12       45 1
      13       11       12 1
      14       10       11 1
      15       10       24 1
      16        8        9 1
      17        7        8 1
      18        6        7 1
      19        5        6 1
      20        4        5 1
      21        4        9 1
      22        3        4 1
      23        3       16 1
      24        2       18 1
      25        2       19 1
      26        1       14 1
      27        1       21 1
      28        1       22 1
      29       24       44 1
      30       22       43 1
      31       19       42 1
      32       13       41 1
      33       11       40 1
      34       10       39 1
      35        9       37 1
      36        9       38 1
      37        8       35 1
      38        8       36 1
      39        7       33 1
      40        7       34 1
      41        6       31 1
      42        6       32 1
      43        5       29 1
      44        5       30 1
      45        4       28 1
      46        3       26 1
      47        3       27 1
      48        2       25 1
@<TRIPOS>SUBSTRUCTURE
       1 LIG             1 RESIDUE    0 **** ROOT      0
