@<TRIPOS>MOLECULE
LIG
45 48 1 0 1
SMALL
USER_CHARGES
@<TRIPOS>CRYSIN
   88.6095    88.6095    88.6095   109.4712   109.4712   109.4712  1  1
@<TRIPOS>ATOM
       1 C1          43.9094    46.3762    46.5143 ca            1 LIG        0.916900
       2 C2          40.6070    48.0621    44.3867 cc            1 LIG        0.388700
       3 C3          44.3256    44.0077    43.3573 c3            1 LIG        0.136400
       4 C4          44.1620    43.2415    42.0261 c3            1 LIG       -0.071700
       5 C5          45.1247    42.0205    41.9502 c3            1 LIG       -0.073900
       6 C6          44.9549    41.2478    40.5649 c3            1 LIG       -0.075900
       7 C7          43.5167    40.8416    40.2624 c3            1 LIG       -0.077400
       8 C8          42.4081    41.9503    40.4634 c3            1 LIG       -0.075900
       9 C9          42.6676    42.7165    41.8000 c3            1 LIG       -0.073900
      10 C10         48.2226    45.4078    48.7340 ca            1 LIG       -0.120500
      11 C11         48.3404    44.0866    48.2545 ca            1 LIG       -0.138000
      12 C12         47.3102    43.4867    47.4843 ca            1 LIG       -0.120500
      13 C13         46.0722    44.1708    47.1971 ca            1 LIG       -0.134000
      14 N1          44.1089    45.6218    45.4422 nb            1 LIG       -0.820000
      15 C14         43.1933    45.7305    44.5088 ca            1 LIG        0.755600
      16 O1          43.4247    45.1307    43.3164 os            1 LIG       -0.419100
      17 C15         42.1951    46.7492    44.6395 ca            1 LIG       -0.214200
      18 N2          41.1741    47.0872    43.7516 nd            1 LIG       -0.500100
      19 N3          41.1484    48.3457    45.7038 na            1 LIG       -0.385000
      20 C16         42.1708    47.4503    45.7935 ca            1 LIG        0.473800
      21 N4          43.0374    47.3335    46.7676 nb            1 LIG       -0.777000
      22 N5          44.8275    46.2324    47.4818 nu            1 LIG       -0.705300
      23 C17         45.9276    45.4815    47.6426 ca            1 LIG        0.128600
      24 C18         47.0254    46.0740    48.3578 ca            1 LIG       -0.134000
      25 H1          39.7036    48.5659    44.0692 h5            1 LIG        0.073800
      26 H2          44.0327    43.3533    44.1875 h1            1 LIG        0.055700
      27 H3          45.3792    44.3100    43.4024 h1            1 LIG        0.055700
      28 H4          44.3928    43.8982    41.1782 hc            1 LIG        0.070700
      29 H5          46.1414    42.3591    42.1851 hc            1 LIG        0.044700
      30 H6          44.7454    41.2736    42.6586 hc            1 LIG        0.044700
      31 H7          45.4177    41.8201    39.7515 hc            1 LIG        0.041200
      32 H8          45.4975    40.2968    40.6325 hc            1 LIG        0.041200
      33 H9          43.5484    40.4893    39.2240 hc            1 LIG        0.039200
      34 H10         43.2393    39.9741    40.8738 hc            1 LIG        0.039200
      35 H11         42.3575    42.6940    39.6585 hc            1 LIG        0.041200
      36 H12         41.4467    41.4396    40.3281 hc            1 LIG        0.041200
      37 H13         42.4261    42.0051    42.5993 hc            1 LIG        0.044700
      38 H14         41.9532    43.5165    42.0301 hc            1 LIG        0.044700
      39 H15         48.9897    45.9285    49.2995 ha            1 LIG        0.133000
      40 H16         49.1913    43.4550    48.4921 ha            1 LIG        0.133000
      41 H17         47.4331    42.5024    47.0424 ha            1 LIG        0.133000
      42 H18         45.2563    43.7152    46.6439 ha            1 LIG        0.142000
      43 H19         40.8759    49.0610    46.3627 hn            1 LIG        0.317700
      44 H20         44.7959    47.0903    48.0176 hn            1 LIG        0.437800
      45 H21         47.0350    47.1124    48.6757 ha            1 LIG        0.142000
@<TRIPOS>BOND
       1       23       24 1
       2       22       23 1
       3       20       21 1
       4       19       20 1
       5       17       18 1
       6       17       20 1
       7       15       16 1
       8       15       17 1
       9       14       15 1
      10       13       23 1
      11       12       13 1
      12       11       12 1
      13       10       11 1
      14       10       24 1
      15        8        9 1
      16        7        8 1
      17        6        7 1
      18        5        6 1
      19        4        5 1
      20        4        9 1
      21        3        4 1
      22        3       16 1
      23        2       18 1
      24        2       19 1
      25        1       14 1
      26        1       21 1
      27        1       22 1
      28       24       45 1
      29       22       44 1
      30       19       43 1
      31       13       42 1
      32       12       41 1
      33       11       40 1
      34       10       39 1
      35        9       37 1
      36        9       38 1
      37        8       35 1
      38        8       36 1
      39        7       33 1
      40        7       34 1
      41        6       31 1
      42        6       32 1
      43        5       29 1
      44        5       30 1
      45        4       28 1
      46        3       26 1
      47        3       27 1
      48        2       25 1
@<TRIPOS>SUBSTRUCTURE
       1 LIG             1 RESIDUE    0 **** ROOT      0
