@<TRIPOS>MOLECULE
LIG
45 48 1 0 1
SMALL
USER_CHARGES
@<TRIPOS>CRYSIN
   88.4485    88.4485    88.4485   109.4712   109.4712   109.4712  1  1
@<TRIPOS>ATOM
       1 C1          43.7188    46.2691    46.6552 ca            1 LIG        0.914900
       2 C2          40.0129    47.6450    45.0898 cc            1 LIG        0.390700
       3 C3          44.2489    44.3838    43.0308 c3            1 LIG        0.136400
       4 C4          44.1015    43.5400    41.7613 c3            1 LIG       -0.071700
       5 C5          45.3636    42.7978    41.3729 c3            1 LIG       -0.074400
       6 C6          45.1546    42.0283    40.0506 c3            1 LIG       -0.075400
       7 C7          43.9865    41.0481    40.2384 c3            1 LIG       -0.078400
       8 C8          42.6530    41.7154    40.6854 c3            1 LIG       -0.075400
       9 C9          43.0171    42.4786    41.8909 c3            1 LIG       -0.074400
      10 C10         47.9434    44.6324    48.3850 ca            1 LIG       -0.108000
      11 C11         47.9892    43.4736    47.5277 ca            1 LIG       -0.134000
      12 C12         46.8290    43.1655    46.8161 ca            1 LIG        0.025400
      13 C13         45.7407    44.0255    46.9017 ca            1 LIG       -0.103000
      14 N1          43.8990    45.6792    45.4920 nb            1 LIG       -0.821000
      15 C14         42.9325    45.7848    44.6068 ca            1 LIG        0.757600
      16 O1          43.0683    45.1269    43.3836 os            1 LIG       -0.418100
      17 C15         41.8551    46.6472    44.8743 ca            1 LIG       -0.211200
      18 N2          40.7253    46.8776    44.2134 nd            1 LIG       -0.500100
      19 N3          40.6913    47.7584    46.2763 na            1 LIG       -0.384000
      20 C16         41.8625    47.2064    46.1518 ca            1 LIG        0.472800
      21 N4          42.8099    47.0892    47.0205 nb            1 LIG       -0.774000
      22 N5          44.6357    46.0400    47.6014 nu            1 LIG       -0.707300
      23 C17         45.7413    45.1915    47.6200 ca            1 LIG        0.141600
      24 C18         46.8446    45.4882    48.4374 ca            1 LIG       -0.166000
      25 H1          39.0448    48.0986    44.9236 h5            1 LIG        0.073800
      26 H2          44.5886    43.7977    43.8936 h1            1 LIG        0.057200
      27 H3          45.1001    45.0691    42.9352 h1            1 LIG        0.057200
      28 H4          43.9600    44.2573    40.9434 hc            1 LIG        0.070700
      29 H5          46.1943    43.4824    41.1619 hc            1 LIG        0.045450
      30 H6          45.7136    42.1687    42.2007 hc            1 LIG        0.045450
      31 H7          45.0424    42.6363    39.1445 hc            1 LIG        0.040700
      32 H8          46.0424    41.4131    39.8584 hc            1 LIG        0.040700
      33 H9          43.8178    40.6228    39.2414 hc            1 LIG        0.039200
      34 H10         44.2785    40.2395    40.9198 hc            1 LIG        0.039200
      35 H11         42.1835    42.2915    39.8785 hc            1 LIG        0.040700
      36 H12         41.8994    40.9561    40.9281 hc            1 LIG        0.040700
      37 H13         43.2414    41.7347    42.6653 hc            1 LIG        0.045450
      38 H14         42.1029    42.8953    42.3314 hc            1 LIG        0.045450
      39 H15         48.8291    44.8443    48.9766 ha            1 LIG        0.139000
      40 H16         48.8396    42.8178    47.3661 ha            1 LIG        0.149000
      41 H17         44.8978    43.6566    46.3248 ha            1 LIG        0.168000
      42 H18         40.4157    48.4945    46.9105 hn            1 LIG        0.317700
      43 H19         44.4695    46.5724    48.4459 hn            1 LIG        0.439800
      44 H20         46.8502    46.2955    49.1637 ha            1 LIG        0.137000
      45 Cl1         46.7553    41.6547    45.7945 cl            1 LIG       -0.094400
@<TRIPOS>BOND
       1       23       24 1
       2       22       23 1
       3       20       21 1
       4       19       20 1
       5       17       18 1
       6       17       20 1
       7       15       16 1
       8       15       17 1
       9       14       15 1
      10       13       23 1
      11       12       13 1
      12       12       45 1
      13       11       12 1
      14       10       11 1
      15       10       24 1
      16        8        9 1
      17        7        8 1
      18        6        7 1
      19        5        6 1
      20        4        5 1
      21        4        9 1
      22        3        4 1
      23        3       16 1
      24        2       18 1
      25        2       19 1
      26        1       14 1
      27        1       21 1
      28        1       22 1
      29       24       44 1
      30       22       43 1
      31       19       42 1
      32       13       41 1
      33       11       40 1
      34       10       39 1
      35        9       37 1
      36        9       38 1
      37        8       35 1
      38        8       36 1
      39        7       33 1
      40        7       34 1
      41        6       31 1
      42        6       32 1
      43        5       29 1
      44        5       30 1
      45        4       28 1
      46        3       26 1
      47        3       27 1
      48        2       25 1
@<TRIPOS>SUBSTRUCTURE
       1 LIG             1 RESIDUE    0 **** ROOT      0
