@<TRIPOS>MOLECULE
LIG
49 52 1 0 1
SMALL
USER_CHARGES
@<TRIPOS>CRYSIN
   88.4466    88.4466    88.4466   109.4712   109.4712   109.4712  1  1
@<TRIPOS>ATOM
       1 C1          43.2776    45.9469    46.1739 ca            1 LIG        0.915900
       2 C2          39.9933    47.7833    43.9713 cc            1 LIG        0.390700
       3 C3          43.8766    43.8483    42.6656 c3            1 LIG        0.136400
       4 C4          43.9064    43.3094    41.2499 c3            1 LIG       -0.071700
       5 C5          44.8914    42.1273    41.1893 c3            1 LIG       -0.073900
       6 C6          44.8907    41.3938    39.8457 c3            1 LIG       -0.075900
       7 C7          43.4327    41.2126    39.4170 c3            1 LIG       -0.078400
       8 C8          42.5898    42.4573    39.2961 c3            1 LIG       -0.075900
       9 C9          42.3978    43.0117    40.6864 c3            1 LIG       -0.073900
      10 C10         47.2614    44.5146    48.6826 ca            1 LIG       -0.112300
      11 C11         47.4777    43.3710    47.9682 ca            1 LIG       -0.137000
      12 C12         46.4400    42.8716    47.1128 ca            1 LIG       -0.120000
      13 C13         45.3001    43.6773    46.8303 ca            1 LIG       -0.100000
      14 N1          43.6427    45.4448    45.0240 nb            1 LIG       -0.821000
      15 C14         42.8206    45.6247    44.0145 ca            1 LIG        0.755600
      16 O1          43.0175    44.9699    42.8248 os            1 LIG       -0.418100
      17 C15         41.7306    46.5521    44.1900 ca            1 LIG       -0.212200
      18 N2          40.8437    47.0289    43.2237 nd            1 LIG       -0.500100
      19 N3          40.3964    47.7726    45.3184 na            1 LIG       -0.384000
      20 C16         41.5043    47.0696    45.3998 ca            1 LIG        0.472800
      21 N4          42.2346    46.7415    46.4283 nb            1 LIG       -0.774000
      22 N5          43.9876    45.6353    47.2664 nu            1 LIG       -0.705300
      23 C17         45.1427    44.8780    47.5187 ca            1 LIG        0.131600
      24 C18         46.1089    45.2931    48.4465 ca            1 LIG       -0.145000
      25 H1          39.0738    48.2954    43.7202 h5            1 LIG        0.073800
      26 H2          43.4266    43.1298    43.3618 h1            1 LIG        0.055700
      27 H3          44.8700    44.1330    43.0336 h1            1 LIG        0.055700
      28 H4          44.3758    44.0114    40.5497 hc            1 LIG        0.071700
      29 H5          45.9096    42.4897    41.3776 hc            1 LIG        0.044450
      30 H6          44.6115    41.3551    41.9164 hc            1 LIG        0.044450
      31 H7          45.3666    41.9901    39.0574 hc            1 LIG        0.041200
      32 H8          45.3947    40.4221    39.9175 hc            1 LIG        0.041200
      33 H9          43.4738    40.6823    38.4576 hc            1 LIG        0.039200
      34 H10         42.9804    40.5310    40.1479 hc            1 LIG        0.039200
      35 H11         43.0791    43.1784    38.6297 hc            1 LIG        0.041200
      36 H12         41.6076    42.2127    38.8732 hc            1 LIG        0.041200
      37 H13         42.0062    42.2462    41.3675 hc            1 LIG        0.044450
      38 H14         41.7451    43.8905    40.6137 hc            1 LIG        0.044450
      39 H15         48.4240    42.8545    48.0988 ha            1 LIG        0.130000
      40 H16         46.4642    41.8981    46.6321 ha            1 LIG        0.136000
      41 H17         44.6208    43.3727    46.0396 ha            1 LIG        0.155000
      42 H18         39.9846    48.4665    45.9259 hn            1 LIG        0.317700
      43 H19         43.6400    46.1046    48.0928 hn            1 LIG        0.437800
      44 H20         45.9451    46.2659    48.9007 ha            1 LIG        0.137000
      45 C19         48.2842    44.9663    49.6310 c3            1 LIG        0.173700
      46 H21         47.8579    45.0200    50.6404 h1            1 LIG        0.051700
      47 H22         49.0235    44.1559    49.6387 h1            1 LIG        0.051700
      48 O2          48.8370    46.2655    49.2617 oh            1 LIG       -0.591800
      49 H23         48.7746    46.4686    48.3122 ho            1 LIG        0.401000
@<TRIPOS>BOND
       1       45       48 1
       2       23       24 1
       3       22       23 1
       4       20       21 1
       5       19       20 1
       6       17       18 1
       7       17       20 1
       8       15       16 1
       9       15       17 1
      10       14       15 1
      11       13       23 1
      12       12       13 1
      13       11       12 1
      14       10       11 1
      15       10       24 1
      16       10       45 1
      17        8        9 1
      18        7        8 1
      19        6        7 1
      20        5        6 1
      21        4        5 1
      22        4        9 1
      23        3        4 1
      24        3       16 1
      25        2       18 1
      26        2       19 1
      27        1       14 1
      28        1       21 1
      29        1       22 1
      30       48       49 1
      31       45       46 1
      32       45       47 1
      33       24       44 1
      34       22       43 1
      35       19       42 1
      36       13       41 1
      37       12       40 1
      38       11       39 1
      39        9       37 1
      40        9       38 1
      41        8       35 1
      42        8       36 1
      43        7       33 1
      44        7       34 1
      45        6       31 1
      46        6       32 1
      47        5       29 1
      48        5       30 1
      49        4       28 1
      50        3       26 1
      51        3       27 1
      52        2       25 1
@<TRIPOS>SUBSTRUCTURE
       1 LIG             1 RESIDUE    0 **** ROOT      0
