@<TRIPOS>MOLECULE
LIG
49 52 1 0 1
SMALL
USER_CHARGES
@<TRIPOS>CRYSIN
   88.5245    88.5245    88.5245   109.4712   109.4712   109.4712  1  1
@<TRIPOS>ATOM
       1 C1          43.3264    46.6251    46.1356 ca            1 LIG        0.912900
       2 C2          40.2559    48.4731    43.7711 cc            1 LIG        0.388700
       3 C3          44.0637    44.5673    42.8133 c3            1 LIG        0.136400
       4 C4          43.7444    43.5631    41.6384 c3            1 LIG       -0.071700
       5 C5          44.9521    42.7984    41.0266 c3            1 LIG       -0.073400
       6 C6          44.6242    41.6408    39.9891 c3            1 LIG       -0.075900
       7 C7          43.4392    40.7932    40.4465 c3            1 LIG       -0.077400
       8 C8          42.2470    41.5901    40.8369 c3            1 LIG       -0.075900
       9 C9          42.6069    42.6495    41.9485 c3            1 LIG       -0.073400
      10 C10         47.3585    45.2136    48.2129 ca            1 LIG       -0.172000
      11 C11         47.4099    43.9136    47.6325 ca            1 LIG        0.119100
      12 C12         46.3505    43.3853    46.9635 ca            1 LIG       -0.172000
      13 C13         45.1531    44.2058    46.8278 ca            1 LIG       -0.097500
      14 N1          43.5291    45.8981    45.0750 nb            1 LIG       -0.819000
      15 C14         42.8547    46.2063    43.9884 ca            1 LIG        0.754600
      16 O1          42.9326    45.4247    42.8772 os            1 LIG       -0.419100
      17 C15         41.9656    47.2727    44.0315 ca            1 LIG       -0.214200
      18 N2          41.0287    47.5933    43.1146 nd            1 LIG       -0.501100
      19 N3          40.8357    48.8332    45.0021 na            1 LIG       -0.385000
      20 C16         41.9508    48.0688    45.1200 ca            1 LIG        0.473800
      21 N4          42.6397    47.7678    46.1958 nb            1 LIG       -0.777000
      22 N5          44.0271    46.2347    47.2671 nu            1 LIG       -0.696300
      23 C17         45.0874    45.4582    47.3956 ca            1 LIG        0.085600
      24 C18         46.1671    45.9759    48.1150 ca            1 LIG       -0.097500
      25 H1          39.3930    48.9676    43.3449 h5            1 LIG        0.073800
      26 H2          44.3298    43.9798    43.7007 h1            1 LIG        0.055200
      27 H3          44.9494    45.1483    42.5282 h1            1 LIG        0.055200
      28 H4          43.3293    44.1549    40.8132 hc            1 LIG        0.071700
      29 H5          45.5442    43.5909    40.5525 hc            1 LIG        0.044200
      30 H6          45.5983    42.3757    41.8058 hc            1 LIG        0.044200
      31 H7          44.4285    42.2103    39.0721 hc            1 LIG        0.040950
      32 H8          45.5454    41.0590    39.8613 hc            1 LIG        0.040950
      33 H9          43.1494    39.9096    39.8644 hc            1 LIG        0.038700
      34 H10         43.6923    40.3819    41.4315 hc            1 LIG        0.038700
      35 H11         41.7909    42.0577    39.9556 hc            1 LIG        0.040950
      36 H12         41.4247    40.9712    41.2167 hc            1 LIG        0.040950
      37 H13         42.7963    42.1473    42.9052 hc            1 LIG        0.044200
      38 H14         41.7634    43.2861    42.2427 hc            1 LIG        0.044200
      39 H15         48.1729    45.8006    48.6272 ha            1 LIG        0.145000
      40 H16         46.2957    42.4367    46.4377 ha            1 LIG        0.145000
      41 H17         44.3698    43.7569    46.2242 ha            1 LIG        0.144000
      42 H18         40.3598    49.4050    45.6852 hn            1 LIG        0.317700
      43 H19         43.7628    46.8782    48.0022 hn            1 LIG        0.434800
      44 H20         46.0491    46.9966    48.4665 ha            1 LIG        0.144000
      45 O2          48.6335    43.2223    47.6522 os            1 LIG       -0.326900
      46 C19         48.7044    41.7687    47.9013 c3            1 LIG        0.113700
      47 H21         48.4525    41.1258    47.0489 h1            1 LIG        0.044700
      48 H22         49.6857    41.4875    48.3029 h1            1 LIG        0.044700
      49 H23         48.0787    41.5790    48.7822 h1            1 LIG        0.044700
@<TRIPOS>BOND
       1       45       46 1
       2       23       24 1
       3       22       23 1
       4       20       21 1
       5       19       20 1
       6       17       18 1
       7       17       20 1
       8       15       16 1
       9       15       17 1
      10       14       15 1
      11       13       23 1
      12       12       13 1
      13       11       12 1
      14       11       45 1
      15       10       11 1
      16       10       24 1
      17        8        9 1
      18        7        8 1
      19        6        7 1
      20        5        6 1
      21        4        5 1
      22        4        9 1
      23        3        4 1
      24        3       16 1
      25        2       18 1
      26        2       19 1
      27        1       14 1
      28        1       21 1
      29        1       22 1
      30       46       47 1
      31       46       48 1
      32       46       49 1
      33       24       44 1
      34       22       43 1
      35       19       42 1
      36       13       41 1
      37       12       40 1
      38       10       39 1
      39        9       37 1
      40        9       38 1
      41        8       35 1
      42        8       36 1
      43        7       33 1
      44        7       34 1
      45        6       31 1
      46        6       32 1
      47        5       29 1
      48        5       30 1
      49        4       28 1
      50        3       26 1
      51        3       27 1
      52        2       25 1
@<TRIPOS>SUBSTRUCTURE
       1 LIG             1 RESIDUE    0 **** ROOT      0
