@<TRIPOS>MOLECULE
LIG
53 56 1 0 1
SMALL
USER_CHARGES
@<TRIPOS>CRYSIN
   88.4943    88.4943    88.4943   109.4712   109.4712   109.4712  1  1
@<TRIPOS>ATOM
       1 C1          42.6685    46.0273    46.1764 ca            1 LIG        0.927900
       2 C2          39.5898    47.9647    43.7934 cc            1 LIG        0.393700
       3 C3          41.6618    44.0950    42.0727 c3            1 LIG        0.136400
       4 C4          42.4153    43.2391    40.9734 c3            1 LIG       -0.071700
       5 C5          43.9272    43.1598    41.2349 c3            1 LIG       -0.074400
       6 C6          44.6718    42.3391    40.1086 c3            1 LIG       -0.075900
       7 C7          43.9499    40.9755    39.8067 c3            1 LIG       -0.078400
       8 C8          42.3850    41.0714    39.6115 c3            1 LIG       -0.075900
       9 C9          41.7719    41.9201    40.8393 c3            1 LIG       -0.074400
      10 C10         46.7526    45.5310    48.5927 ca            1 LIG        0.003000
      11 C11         47.2922    44.3194    48.0926 ca            1 LIG       -0.411500
      12 C12         46.4556    43.6309    47.1097 ca            1 LIG        0.003000
      13 C13         45.2028    44.1079    46.8267 ca            1 LIG       -0.183000
      14 N1          43.0240    45.4351    45.0596 nb            1 LIG       -0.826000
      15 C14         42.2050    45.6239    44.0071 ca            1 LIG        0.758600
      16 O1          42.5479    45.0051    42.7892 os            1 LIG       -0.416100
      17 C15         41.1456    46.5650    44.0957 ca            1 LIG       -0.209200
      18 N2          40.2307    47.0191    43.1344 nd            1 LIG       -0.499100
      19 N3          39.9631    48.0475    45.1149 na            1 LIG       -0.382000
      20 C16         40.9716    47.1493    45.3030 ca            1 LIG        0.472800
      21 N4          41.6843    46.8642    46.4287 nb            1 LIG       -0.770000
      22 N5          43.3262    45.7812    47.3063 nu            1 LIG       -0.730300
      23 C17         44.6587    45.2834    47.4690 ca            1 LIG        0.224600
      24 C18         45.4546    45.9332    48.3668 ca            1 LIG       -0.183000
      25 H1          38.7252    48.4731    43.3876 h5            1 LIG        0.075800
      26 H2          40.7435    44.5462    41.6771 h1            1 LIG        0.054700
      27 H3          41.2509    43.4010    42.8162 h1            1 LIG        0.054700
      28 H4          42.2649    43.8578    40.0801 hc            1 LIG        0.071700
      29 H5          44.4337    44.1243    41.3636 hc            1 LIG        0.044200
      30 H6          44.1460    42.6299    42.1701 hc            1 LIG        0.044200
      31 H7          44.7593    42.9833    39.2250 hc            1 LIG        0.041700
      32 H8          45.6757    42.2467    40.5412 hc            1 LIG        0.041700
      33 H9          44.5173    40.5504    38.9696 hc            1 LIG        0.040200
      34 H10         44.2484    40.2817    40.6022 hc            1 LIG        0.040200
      35 H11         42.1511    41.6121    38.6861 hc            1 LIG        0.041700
      36 H12         41.9511    40.0668    39.5340 hc            1 LIG        0.041700
      37 H13         41.7933    41.3390    41.7695 hc            1 LIG        0.044200
      38 H14         40.7029    42.0441    40.6266 hc            1 LIG        0.044200
      39 H15         47.3129    46.1474    49.2896 ha            1 LIG        0.153500
      40 H16         46.9252    42.6965    46.8168 ha            1 LIG        0.153500
      41 H17         44.5319    43.5920    46.1462 ha            1 LIG        0.151000
      42 H18         39.5591    48.5694    45.8794 hn            1 LIG        0.319700
      43 H19         42.9451    46.3119    48.0792 hn            1 LIG        0.455800
      44 H20         45.1507    46.8821    48.7986 ha            1 LIG        0.151000
      45 S1          48.9297    43.8441    48.4901 sy            1 LIG        1.519200
      46 O2          49.8439    44.9374    48.8904 o             1 LIG       -0.656800
      47 O3          48.8604    42.5680    49.2163 o             1 LIG       -0.656800
      48 N6          49.5506    43.2664    47.0578 n7            1 LIG       -0.919100
      49 H21         50.4161    42.9510    47.4937 hn            1 LIG        0.446800
      50 C19         49.8500    44.3067    46.0161 c3            1 LIG        0.212100
      51 H22         49.1094    45.1142    45.9613 h1            1 LIG        0.042033
      52 H23         50.8392    44.7404    46.2079 h1            1 LIG        0.042033
      53 H24         49.9542    43.9258    44.9927 h1            1 LIG        0.042033
@<TRIPOS>BOND
       1       48       50 1
       2       45       46 1
       3       45       47 1
       4       45       48 1
       5       23       24 1
       6       22       23 1
       7       20       21 1
       8       19       20 1
       9       17       18 1
      10       17       20 1
      11       15       16 1
      12       15       17 1
      13       14       15 1
      14       13       23 1
      15       12       13 1
      16       11       12 1
      17       11       45 1
      18       10       11 1
      19       10       24 1
      20        8        9 1
      21        7        8 1
      22        6        7 1
      23        5        6 1
      24        4        5 1
      25        4        9 1
      26        3        4 1
      27        3       16 1
      28        2       18 1
      29        2       19 1
      30        1       14 1
      31        1       21 1
      32        1       22 1
      33       50       51 1
      34       50       52 1
      35       50       53 1
      36       48       49 1
      37       24       44 1
      38       22       43 1
      39       19       42 1
      40       13       41 1
      41       12       40 1
      42       10       39 1
      43        9       37 1
      44        9       38 1
      45        8       35 1
      46        8       36 1
      47        7       33 1
      48        7       34 1
      49        6       31 1
      50        6       32 1
      51        5       29 1
      52        5       30 1
      53        4       28 1
      54        3       26 1
      55        3       27 1
      56        2       25 1
@<TRIPOS>SUBSTRUCTURE
       1 LIG             1 RESIDUE    0 **** ROOT      0
