@<TRIPOS>MOLECULE
LIG
56 59 1 0 1
SMALL
USER_CHARGES
@<TRIPOS>CRYSIN
   88.5473    88.5473    88.5473   109.4712   109.4712   109.4712  1  1
@<TRIPOS>ATOM
       1 C1          42.4824    46.2769    45.7145 ca            1 LIG        0.927900
       2 C2          39.1499    47.8939    43.4328 cc            1 LIG        0.393700
       3 C3          43.3529    44.3236    42.1972 c3            1 LIG        0.136400
       4 C4          42.8291    43.2347    41.2060 c3            1 LIG       -0.071700
       5 C5          43.9831    42.3001    40.7341 c3            1 LIG       -0.074400
       6 C6          43.5635    41.2488    39.6440 c3            1 LIG       -0.075900
       7 C7          42.2407    40.5024    40.0074 c3            1 LIG       -0.078400
       8 C8          41.1251    41.3598    40.5622 c3            1 LIG       -0.075900
       9 C9          41.6392    42.3080    41.6849 c3            1 LIG       -0.074400
      10 C10         46.3953    45.2886    48.1472 ca            1 LIG        0.003000
      11 C11         46.7415    44.1538    47.3847 ca            1 LIG       -0.407500
      12 C12         45.7151    43.4899    46.7061 ca            1 LIG        0.003000
      13 C13         44.4763    44.0650    46.4939 ca            1 LIG       -0.182500
      14 N1          42.7850    45.6220    44.5720 nb            1 LIG       -0.826000
      15 C14         41.9777    45.8644    43.5200 ca            1 LIG        0.758600
      16 O1          42.2353    45.2613    42.3239 os            1 LIG       -0.416100
      17 C15         40.9344    46.7224    43.6766 ca            1 LIG       -0.209200
      18 N2          39.9454    47.0681    42.7589 nd            1 LIG       -0.499100
      19 N3          39.5490    48.0509    44.7622 na            1 LIG       -0.382000
      20 C16         40.6598    47.3088    44.8765 ca            1 LIG        0.472800
      21 N4          41.3985    47.0475    45.9448 nb            1 LIG       -0.770000
      22 N5          43.1143    46.0385    46.8056 nu            1 LIG       -0.730300
      23 C17         44.2235    45.3345    47.0882 ca            1 LIG        0.224600
      24 C18         45.1383    45.8640    48.0392 ca            1 LIG       -0.182500
      25 H1          38.2710    48.4177    43.0809 h5            1 LIG        0.075800
      26 H2          43.6599    43.7783    43.0982 h1            1 LIG        0.055200
      27 H3          44.2816    44.8308    41.9081 h1            1 LIG        0.055200
      28 H4          42.3300    43.8023    40.4109 hc            1 LIG        0.071700
      29 H5          44.8516    42.8792    40.3967 hc            1 LIG        0.044200
      30 H6          44.4014    41.8124    41.6232 hc            1 LIG        0.044200
      31 H7          43.3845    41.7996    38.7124 hc            1 LIG        0.041700
      32 H8          44.3835    40.5538    39.4247 hc            1 LIG        0.041700
      33 H9          41.9282    40.0278    39.0690 hc            1 LIG        0.040200
      34 H10         42.3204    39.6662    40.7130 hc            1 LIG        0.040200
      35 H11         40.6922    41.8641    39.6895 hc            1 LIG        0.041700
      36 H12         40.3515    40.6949    40.9658 hc            1 LIG        0.041700
      37 H13         41.9777    41.6644    42.5063 hc            1 LIG        0.044200
      38 H14         40.7285    42.8437    41.9799 hc            1 LIG        0.044200
      39 H15         47.0694    45.7330    48.8735 ha            1 LIG        0.153000
      40 H16         45.8626    42.5648    46.1568 ha            1 LIG        0.153000
      41 H17         43.7960    43.6295    45.7680 ha            1 LIG        0.151000
      42 H18         39.0153    48.4727    45.5088 hn            1 LIG        0.319700
      43 H19         42.7130    46.6978    47.4603 hn            1 LIG        0.455800
      44 H20         44.8048    46.7414    48.5854 ha            1 LIG        0.151000
      45 S1          48.3986    43.5045    47.7070 sy            1 LIG        1.511200
      46 O2          48.4846    43.2507    49.1165 o             1 LIG       -0.653800
      47 O3          48.6968    42.4172    46.7889 o             1 LIG       -0.653800
      48 N6          49.4019    44.8459    47.2998 n3            1 LIG       -0.813500
      49 C19         49.4152    45.1925    45.8702 c3            1 LIG        0.208100
      50 H21         48.4321    45.0697    45.3992 h1            1 LIG        0.044033
      51 H22         49.7539    46.2134    45.6546 h1            1 LIG        0.044033
      52 H23         50.1567    44.5803    45.3422 h1            1 LIG        0.044033
      53 C20         50.7586    44.7820    47.8865 c3            1 LIG        0.208100
      54 H24         51.3848    45.5410    47.4015 h1            1 LIG        0.044033
      55 H25         50.7286    45.0106    48.9590 h1            1 LIG        0.044033
      56 H26         51.2339    43.8142    47.6840 h1            1 LIG        0.044033
@<TRIPOS>BOND
       1       48       49 1
       2       48       53 1
       3       45       46 1
       4       45       47 1
       5       45       48 1
       6       23       24 1
       7       22       23 1
       8       20       21 1
       9       19       20 1
      10       17       18 1
      11       17       20 1
      12       15       16 1
      13       15       17 1
      14       14       15 1
      15       13       23 1
      16       12       13 1
      17       11       12 1
      18       11       45 1
      19       10       11 1
      20       10       24 1
      21        8        9 1
      22        7        8 1
      23        6        7 1
      24        5        6 1
      25        4        5 1
      26        4        9 1
      27        3        4 1
      28        3       16 1
      29        2       18 1
      30        2       19 1
      31        1       14 1
      32        1       21 1
      33        1       22 1
      34       53       54 1
      35       53       55 1
      36       53       56 1
      37       49       50 1
      38       49       51 1
      39       49       52 1
      40       24       44 1
      41       22       43 1
      42       19       42 1
      43       13       41 1
      44       12       40 1
      45       10       39 1
      46        9       37 1
      47        9       38 1
      48        8       35 1
      49        8       36 1
      50        7       33 1
      51        7       34 1
      52        6       31 1
      53        6       32 1
      54        5       29 1
      55        5       30 1
      56        4       28 1
      57        3       26 1
      58        3       27 1
      59        2       25 1
@<TRIPOS>SUBSTRUCTURE
       1 LIG             1 RESIDUE    0 **** ROOT      0
