@<TRIPOS>MOLECULE
LIG
51 54 1 0 1
SMALL
USER_CHARGES
@<TRIPOS>CRYSIN
   88.3640    88.3640    88.3640   109.4712   109.4712   109.4712  1  1
@<TRIPOS>ATOM
       1 C1          43.5765    46.4526    45.6880 ca            1 LIG        0.927900
       2 C2          40.2180    48.3968    43.7061 cc            1 LIG        0.394700
       3 C3          44.0900    44.8109    41.8819 c3            1 LIG        0.136400
       4 C4          43.1342    43.6795    41.5014 c3            1 LIG       -0.071700
       5 C5          43.7586    42.6004    40.5200 c3            1 LIG       -0.074400
       6 C6          42.6323    41.7123    39.9649 c3            1 LIG       -0.075900
       7 C7          41.7516    41.0575    41.1019 c3            1 LIG       -0.078400
       8 C8          41.2386    42.1627    42.0537 c3            1 LIG       -0.075900
       9 C9          42.3157    43.0286    42.6134 c3            1 LIG       -0.074400
      10 C10         47.3262    44.3717    48.0375 ca            1 LIG        0.004000
      11 C11         47.2928    43.2461    47.3062 ca            1 LIG       -0.421500
      12 C12         46.2345    42.9502    46.3968 ca            1 LIG        0.004000
      13 C13         45.2489    43.9194    46.2031 ca            1 LIG       -0.184500
      14 N1          43.7463    45.8494    44.5108 nb            1 LIG       -0.827000
      15 C14         42.9506    46.2759    43.5405 ca            1 LIG        0.759600
      16 O1          43.3814    45.9622    42.2538 os            1 LIG       -0.415100
      17 C15         41.9046    47.2107    43.8177 ca            1 LIG       -0.208200
      18 N2          41.0356    47.6723    42.8551 nd            1 LIG       -0.499100
      19 N3          40.6203    48.4188    45.0830 na            1 LIG       -0.382000
      20 C16         41.7278    47.6292    45.0595 ca            1 LIG        0.472800
      21 N4          42.6061    47.3089    46.0316 nb            1 LIG       -0.769000
      22 N5          44.4140    46.2192    46.6887 nu            1 LIG       -0.732300
      23 C17         45.3705    45.1869    46.7696 ca            1 LIG        0.231600
      24 C18         46.3972    45.3297    47.7143 ca            1 LIG       -0.184500
      25 H1          39.3183    48.9113    43.3954 h5            1 LIG        0.076800
      26 H2          44.6816    44.5237    42.7600 h1            1 LIG        0.054700
      27 H3          44.7158    45.1258    41.0378 h1            1 LIG        0.054700
      28 H4          42.5018    44.2580    40.8168 hc            1 LIG        0.071700
      29 H5          44.2458    43.0439    39.6429 hc            1 LIG        0.044700
      30 H6          44.6130    42.0271    40.9003 hc            1 LIG        0.044700
      31 H7          41.9882    42.2891    39.2897 hc            1 LIG        0.041700
      32 H8          43.0519    40.8768    39.3909 hc            1 LIG        0.041700
      33 H9          40.8562    40.5840    40.6808 hc            1 LIG        0.040200
      34 H10         42.2921    40.2606    41.6275 hc            1 LIG        0.040200
      35 H11         40.5132    42.8435    41.5914 hc            1 LIG        0.041700
      36 H12         40.6188    41.7313    42.8493 hc            1 LIG        0.041700
      37 H13         42.8941    42.3553    43.2580 hc            1 LIG        0.044700
      38 H14         41.7714    43.7011    43.2879 hc            1 LIG        0.044700
      39 H15         48.0343    44.5208    48.8472 ha            1 LIG        0.156000
      40 H16         46.1668    41.9802    45.9131 ha            1 LIG        0.156000
      41 H17         44.4364    43.7067    45.5147 ha            1 LIG        0.152500
      42 H18         40.1985    48.9419    45.8370 hn            1 LIG        0.319700
      43 H19         44.4718    46.9706    47.3642 hn            1 LIG        0.457800
      44 H20         46.4036    46.2116    48.3482 ha            1 LIG        0.152500
      45 S1          48.6231    42.0980    47.4733 sy            1 LIG        1.403300
      46 O2          48.9065    41.9450    48.8822 o             1 LIG       -0.660800
      47 O3          48.3581    40.9656    46.6049 o             1 LIG       -0.660800
      48 C19         49.9923    42.9355    46.7886 c3            1 LIG       -0.354300
      49 H21         50.7949    42.2373    47.0565 h1            1 LIG        0.112033
      50 H22         49.8964    42.8043    45.7037 h1            1 LIG        0.112033
      51 H23         49.9648    43.9808    47.1202 h1            1 LIG        0.112033
@<TRIPOS>BOND
       1       45       46 1
       2       45       47 1
       3       45       48 1
       4       23       24 1
       5       22       23 1
       6       20       21 1
       7       19       20 1
       8       17       18 1
       9       17       20 1
      10       15       16 1
      11       15       17 1
      12       14       15 1
      13       13       23 1
      14       12       13 1
      15       11       12 1
      16       11       45 1
      17       10       11 1
      18       10       24 1
      19        8        9 1
      20        7        8 1
      21        6        7 1
      22        5        6 1
      23        4        5 1
      24        4        9 1
      25        3        4 1
      26        3       16 1
      27        2       18 1
      28        2       19 1
      29        1       14 1
      30        1       21 1
      31        1       22 1
      32       48       49 1
      33       48       50 1
      34       48       51 1
      35       24       44 1
      36       22       43 1
      37       19       42 1
      38       13       41 1
      39       12       40 1
      40       10       39 1
      41        9       37 1
      42        9       38 1
      43        8       35 1
      44        8       36 1
      45        7       33 1
      46        7       34 1
      47        6       31 1
      48        6       32 1
      49        5       29 1
      50        5       30 1
      51        4       28 1
      52        3       26 1
      53        3       27 1
      54        2       25 1
@<TRIPOS>SUBSTRUCTURE
       1 LIG             1 RESIDUE    0 **** ROOT      0
