@<TRIPOS>MOLECULE
LIG
50 53 1 0 1
SMALL
USER_CHARGES
@<TRIPOS>CRYSIN
   88.5704    88.5704    88.5704   109.4712   109.4712   109.4712  1  1
@<TRIPOS>ATOM
       1 C1          42.9925    46.1233    46.3037 ca            1 LIG        0.921900
       2 C2          40.0051    48.3944    44.1242 cc            1 LIG        0.391700
       3 C3          44.0020    44.7108    42.5335 c3            1 LIG        0.136400
       4 C4          43.7272    44.0162    41.2049 c3            1 LIG       -0.072700
       5 C5          45.0172    43.1591    40.9514 c3            1 LIG       -0.073400
       6 C6          44.7832    42.2577    39.6949 c3            1 LIG       -0.075900
       7 C7          43.5858    41.3132    39.9247 c3            1 LIG       -0.078400
       8 C8          42.2793    41.9895    40.2015 c3            1 LIG       -0.075900
       9 C9          42.4451    43.0667    41.3702 c3            1 LIG       -0.073400
      10 C10         47.2708    45.1291    48.2677 ca            1 LIG       -0.042500
      11 C11         47.5002    43.9074    47.6104 ca            1 LIG       -0.150500
      12 C12         46.4623    43.2452    46.9178 ca            1 LIG       -0.042500
      13 C13         45.1744    43.8780    46.8683 ca            1 LIG       -0.162000
      14 N1          43.2859    45.6140    45.1541 nb            1 LIG       -0.824000
      15 C14         42.5458    46.0336    44.1233 ca            1 LIG        0.756600
      16 O1          42.7631    45.5098    42.8645 os            1 LIG       -0.417100
      17 C15         41.5616    46.9593    44.2782 ca            1 LIG       -0.211200
      18 N2          40.7164    47.5327    43.3284 nd            1 LIG       -0.500100
      19 N3          40.5292    48.4317    45.4497 na            1 LIG       -0.383000
      20 C16         41.4382    47.5002    45.4870 ca            1 LIG        0.473800
      21 N4          42.0820    47.0993    46.5761 nb            1 LIG       -0.772000
      22 N5          43.7314    45.7731    47.3560 nu            1 LIG       -0.717300
      23 C17         44.9592    45.2014    47.4258 ca            1 LIG        0.181600
      24 C18         46.0277    45.7780    48.1644 ca            1 LIG       -0.162000
      25 H1          39.2376    49.0971    43.8277 h5            1 LIG        0.074800
      26 H2          44.2059    43.9228    43.2690 h1            1 LIG        0.055200
      27 H3          44.8618    45.3919    42.5175 h1            1 LIG        0.055200
      28 H4          43.4224    44.7159    40.4169 hc            1 LIG        0.071700
      29 H5          45.8526    43.8116    40.6692 hc            1 LIG        0.043950
      30 H6          45.3971    42.5829    41.8040 hc            1 LIG        0.043950
      31 H7          44.5189    42.8506    38.8106 hc            1 LIG        0.041700
      32 H8          45.5855    41.5871    39.3633 hc            1 LIG        0.041700
      33 H9          43.3858    40.8455    38.9528 hc            1 LIG        0.039200
      34 H10         43.8618    40.5477    40.6605 hc            1 LIG        0.039200
      35 H11         41.9712    42.5272    39.2963 hc            1 LIG        0.041700
      36 H12         41.4948    41.2824    40.4981 hc            1 LIG        0.041700
      37 H13         42.4609    42.5290    42.3262 hc            1 LIG        0.043950
      38 H14         41.5529    43.6967    41.4724 hc            1 LIG        0.043950
      39 H15         48.0656    45.6156    48.8254 ha            1 LIG        0.147500
      40 H16         46.6551    42.3332    46.3605 ha            1 LIG        0.147500
      41 H17         44.3738    43.2778    46.4461 ha            1 LIG        0.147500
      42 H18         40.2250    49.0224    46.2104 hn            1 LIG        0.318700
      43 H19         43.4226    46.3071    48.1583 hn            1 LIG        0.446800
      44 H20         45.9347    46.7359    48.6674 ha            1 LIG        0.147500
      45 S1          49.1584    43.2558    47.5344 sx            1 LIG        0.328400
      46 O2          49.3281    42.7234    46.1411 o             1 LIG       -0.513200
      47 C19         48.6567    41.9212    48.8121 c3            1 LIG       -0.127800
      48 H21         49.5168    41.2488    48.9188 h1            1 LIG        0.083367
      49 H22         48.4074    42.4483    49.7414 h1            1 LIG        0.083367
      50 H23         47.8209    41.3581    48.3786 h1            1 LIG        0.083367
@<TRIPOS>BOND
       1       45       46 1
       2       45       47 1
       3       23       24 1
       4       22       23 1
       5       20       21 1
       6       19       20 1
       7       17       18 1
       8       17       20 1
       9       15       16 1
      10       15       17 1
      11       14       15 1
      12       13       23 1
      13       12       13 1
      14       11       12 1
      15       11       45 1
      16       10       11 1
      17       10       24 1
      18        8        9 1
      19        7        8 1
      20        6        7 1
      21        5        6 1
      22        4        5 1
      23        4        9 1
      24        3        4 1
      25        3       16 1
      26        2       18 1
      27        2       19 1
      28        1       14 1
      29        1       21 1
      30        1       22 1
      31       47       48 1
      32       47       49 1
      33       47       50 1
      34       24       44 1
      35       22       43 1
      36       19       42 1
      37       13       41 1
      38       12       40 1
      39       10       39 1
      40        9       37 1
      41        9       38 1
      42        8       35 1
      43        8       36 1
      44        7       33 1
      45        7       34 1
      46        6       31 1
      47        6       32 1
      48        5       29 1
      49        5       30 1
      50        4       28 1
      51        3       26 1
      52        3       27 1
      53        2       25 1
@<TRIPOS>SUBSTRUCTURE
       1 LIG             1 RESIDUE    0 **** ROOT      0
