@<TRIPOS>MOLECULE
LIG
54 57 1 0 1
SMALL
USER_CHARGES
@<TRIPOS>CRYSIN
   88.4513    88.4513    88.4513   109.4712   109.4712   109.4712  1  1
@<TRIPOS>ATOM
       1 C1          42.8999    46.3063    45.8493 ca            1 LIG        0.928900
       2 C2          39.2195    47.5817    44.0079 cc            1 LIG        0.394700
       3 C3          43.5590    44.7984    42.1236 c3            1 LIG        0.137400
       4 C4          43.2587    43.6597    41.1718 c3            1 LIG       -0.072700
       5 C5          44.4079    42.6662    41.1770 c3            1 LIG       -0.073400
       6 C6          44.1652    41.4035    40.4055 c3            1 LIG       -0.075900
       7 C7          42.8824    40.7246    40.8326 c3            1 LIG       -0.078400
       8 C8          41.5969    41.6563    40.8765 c3            1 LIG       -0.075900
       9 C9          41.9282    42.9249    41.6021 c3            1 LIG       -0.073400
      10 C10         47.1662    45.6371    48.1383 ca            1 LIG        0.022000
      11 C11         47.5564    44.4758    47.4578 ca            1 LIG       -0.423500
      12 C12         46.6420    43.9069    46.5287 ca            1 LIG        0.254100
      13 C13         45.3916    44.4491    46.3745 ca            1 LIG       -0.232000
      14 N1          43.1879    45.7460    44.6528 nb            1 LIG       -0.828000
      15 C14         42.3208    46.0160    43.6836 ca            1 LIG        0.757600
      16 O1          42.4112    45.5537    42.4585 os            1 LIG       -0.416100
      17 C15         41.1472    46.7472    43.9646 ca            1 LIG       -0.209200
      18 N2          40.0851    47.0945    43.1522 nd            1 LIG       -0.500100
      19 N3          39.7071    47.6998    45.2894 na            1 LIG       -0.382000
      20 C16         40.9262    47.1442    45.2469 ca            1 LIG        0.473800
      21 N4          41.8401    47.0048    46.2121 nb            1 LIG       -0.769000
      22 N5          43.8322    46.2571    46.8637 nu            1 LIG       -0.731300
      23 C17         45.0005    45.5729    47.0852 ca            1 LIG        0.252600
      24 C18         45.8928    46.1455    47.9776 ca            1 LIG       -0.233000
      25 H1          38.2073    47.8686    43.7552 h5            1 LIG        0.076800
      26 H2          44.0674    44.3621    42.9923 h1            1 LIG        0.053200
      27 H3          44.3218    45.4677    41.7069 h1            1 LIG        0.053200
      28 H4          43.0897    43.9967    40.1416 hc            1 LIG        0.073700
      29 H5          45.2041    43.2356    40.6817 hc            1 LIG        0.043700
      30 H6          44.7978    42.4509    42.1796 hc            1 LIG        0.043700
      31 H7          43.9347    41.6844    39.3704 hc            1 LIG        0.042450
      32 H8          45.0138    40.7084    40.4193 hc            1 LIG        0.042450
      33 H9          42.7718    39.8184    40.2244 hc            1 LIG        0.039700
      34 H10         42.9911    40.3054    41.8405 hc            1 LIG        0.039700
      35 H11         41.1795    41.8972    39.8910 hc            1 LIG        0.042450
      36 H12         40.8690    41.0579    41.4381 hc            1 LIG        0.042450
      37 H13         41.9333    42.6694    42.6689 hc            1 LIG        0.043700
      38 H14         41.0647    43.5961    41.5183 hc            1 LIG        0.043700
      39 H15         47.7990    46.1961    48.8213 ha            1 LIG        0.169000
      40 H16         44.6375    44.0193    45.7218 ha            1 LIG        0.164000
      41 H17         39.1801    48.0189    46.0898 hn            1 LIG        0.319700
      42 H18         43.5846    46.9100    47.5962 hn            1 LIG        0.458800
      43 H19         45.5952    46.9821    48.6028 ha            1 LIG        0.143000
      44 S1          49.1963    43.8068    47.7294 sy            1 LIG        1.540200
      45 O2          49.8528    44.1908    48.9727 o             1 LIG       -0.663300
      46 O3          49.6859    42.5779    46.9868 o             1 LIG       -0.663300
      47 N6          50.0106    44.9873    47.0399 n8            1 LIG       -1.022700
      48 H20         50.5191    44.4411    46.3461 hn            1 LIG        0.449300
      49 H21         50.6148    45.1188    47.8499 hn            1 LIG        0.449300
      50 O4          47.0327    42.7826    45.8053 os            1 LIG       -0.350900
      51 C19         46.1736    42.0809    44.8689 c3            1 LIG        0.119700
      52 H22         45.9458    42.8009    44.0732 h1            1 LIG        0.052700
      53 H23         46.6348    41.2281    44.3556 h1            1 LIG        0.052700
      54 H24         45.2522    41.7536    45.3662 h1            1 LIG        0.052700
@<TRIPOS>BOND
       1       50       51 1
       2       44       45 1
       3       44       46 1
       4       44       47 1
       5       23       24 1
       6       22       23 1
       7       20       21 1
       8       19       20 1
       9       17       18 1
      10       17       20 1
      11       15       16 1
      12       15       17 1
      13       14       15 1
      14       13       23 1
      15       12       13 1
      16       12       50 1
      17       11       12 1
      18       11       44 1
      19       10       11 1
      20       10       24 1
      21        8        9 1
      22        7        8 1
      23        6        7 1
      24        5        6 1
      25        4        5 1
      26        4        9 1
      27        3        4 1
      28        3       16 1
      29        2       18 1
      30        2       19 1
      31        1       14 1
      32        1       21 1
      33        1       22 1
      34       51       52 1
      35       51       53 1
      36       51       54 1
      37       47       49 1
      38       47       48 1
      39       24       43 1
      40       22       42 1
      41       19       41 1
      42       13       40 1
      43       10       39 1
      44        9       37 1
      45        9       38 1
      46        8       35 1
      47        8       36 1
      48        7       33 1
      49        7       34 1
      50        6       31 1
      51        6       32 1
      52        5       29 1
      53        5       30 1
      54        4       28 1
      55        3       26 1
      56        3       27 1
      57        2       25 1
@<TRIPOS>SUBSTRUCTURE
       1 LIG             1 RESIDUE    0 **** ROOT      0
