@<TRIPOS>MOLECULE
Cpptraj Generated mol2 file.
   37    38     1     0     0
SMALL
USER_CHARGES


@<TRIPOS>ATOM
      1 C1         21.8041   16.0720   15.9555 ca         1 ejm54   -0.096000
      2 C2         21.7635   15.8005   17.3202 ca         1 ejm54   -0.129000
      3 C3         21.9086   16.8298   18.2441 ca         1 ejm54    0.052400
      4 C4         22.1082   18.1518   17.8052 ca         1 ejm54   -0.142600
      5 C5         22.1346   18.4171   16.4220 ca         1 ejm54    0.052400
      6 C6         21.9885   17.3758   15.5143 ca         1 ejm54   -0.129000
      7 Cl1        22.3531   20.0452   15.8481 cl         1 ejm54   -0.059900
      8 C7         22.2914   19.2780   18.7490 c          1 ejm54    0.691700
      9 O1         23.4151   19.7192   18.9248 o          1 ejm54   -0.551100
     10 N1         21.1989   19.7954   19.3441 ns         1 ejm54   -0.460100
     11 C8         21.1017   20.8871   20.2131 ca         1 ejm54    0.124600
     12 C9         22.1050   21.8481   20.4472 ca         1 ejm54   -0.300300
     13 C10        21.8184   22.9389   21.2626 ca         1 ejm54    0.442200
     14 N2         20.6220   23.0765   21.8266 nb         1 ejm54   -0.737000
     15 C11        19.6456   22.1891   21.6411 ca         1 ejm54    0.554200
     16 C12        19.8539   21.1029   20.7883 ca         1 ejm54   -0.307300
     17 N3         18.3900   22.4246   22.2123 ns         1 ejm54   -0.553400
     18 C13        17.4512   21.4951   22.5345 c          1 ejm54    0.764100
     19 O2         17.6155   20.2989   22.3651 o          1 ejm54   -0.629100
     20 Cl2        21.8155   16.4685   19.9342 cl         1 ejm54   -0.059900
     21 H1         21.6920   15.2699   15.2412 ha         1 ejm54    0.148000
     22 H2         21.6193   14.7869   17.6644 ha         1 ejm54    0.157000
     23 H3         22.0197   17.5882   14.4561 ha         1 ejm54    0.157000
     24 H4         20.2912   19.3829   19.1794 hn         1 ejm54    0.330500
     25 H5         23.0791   21.7315   19.9947 ha         1 ejm54    0.183000
     26 H6         22.5734   23.6891   21.4463 h4         1 ejm54    0.025100
     27 H7         19.0379   20.4269   20.5757 ha         1 ejm54    0.179000
     28 H8         18.1011   23.3684   22.4281 hn         1 ejm54    0.326500
     29 C14        15.3201   20.9953   23.7982 c3         1 ejm54    0.078000
     30 H9         14.5628   21.4946   24.4033 h1         1 ejm54    0.069700
     31 H10        14.8322   20.3719   23.0487 h1         1 ejm54    0.069700
     32 C15        16.1781   20.1377   24.6804 c3         1 ejm54   -0.130100
     33 N4         16.1813   21.9434   23.1089 ns         1 ejm54   -0.542900
     34 H11        15.9036   22.9109   23.0263 hn         1 ejm54    0.292500
     35 H12        16.9354   19.6383   24.0753 hc         1 ejm54    0.043700
     36 H13        16.6654   20.7602   25.4308 hc         1 ejm54    0.043700
     37 H14        15.5586   19.3909   25.1757 hc         1 ejm54    0.043700
@<TRIPOS>BOND
    1    29    32 1
    2    29    33 1
    3    18    19 1
    4    18    33 1
    5    17    18 1
    6    15    16 1
    7    15    17 1
    8    14    15 1
    9    13    14 1
   10    12    13 1
   11    11    12 1
   12    11    16 1
   13    10    11 1
   14     8     9 1
   15     8    10 1
   16     5     6 1
   17     5     7 1
   18     4     5 1
   19     4     8 1
   20     3     4 1
   21     3    20 1
   22     2     3 1
   23     1     2 1
   24     1     6 1
   25    33    34 1
   26    32    35 1
   27    32    36 1
   28    32    37 1
   29    29    30 1
   30    29    31 1
   31    17    28 1
   32    16    27 1
   33    13    26 1
   34    12    25 1
   35    10    24 1
   36     6    23 1
   37     2    22 1
   38     1    21 1
@<TRIPOS>SUBSTRUCTURE
      1 ejm54              1 ****               0 ****  **** 
