@<TRIPOS>MOLECULE
LIG
   84    87     1     0     0
SMALL
bcc


@<TRIPOS>ATOM
      1 C3          31.7660     6.0320    15.0030 c3         1 LIG       0.076700
      2 H3          31.4820     6.4730    14.0190 h1         1 LIG       0.088700
      3 C5          32.8250     6.9350    15.6500 c3         1 LIG      -0.062100
      4 H51         33.4090     6.3880    16.4270 hc         1 LIG       0.061200
      5 H52         33.6540     7.1650    14.9410 hc         1 LIG       0.061200
      6 C8          32.2090     8.1970    16.2080 ca         1 LIG      -0.048300
      7 C11         31.5550     9.5620    18.0870 ca         1 LIG       0.124100
      8 C12         30.9980    10.5050    17.2360 ca         1 LIG      -0.158000
      9 H12         30.5200    11.4130    17.6420 ha         1 LIG       0.150000
     10 C14         31.0510    10.2900    15.8720 ca         1 LIG      -0.094000
     11 H14         30.6170    11.0340    15.1830 ha         1 LIG       0.139000
     12 C16         31.6460     9.1460    15.3630 ca         1 LIG      -0.152000
     13 H16         31.6730     8.9870    14.2720 ha         1 LIG       0.141000
     14 C19         31.7980     8.8350    20.3740 c3         1 LIG       0.125400
     15 H191        32.7900     8.9880    20.8600 h1         1 LIG       0.044700
     16 H192        32.0210     7.8520    19.8970 h1         1 LIG       0.044700
     17 C22         30.6640     8.7670    21.3610 c3         1 LIG      -0.087400
     18 H221        30.2850     9.7860    21.6080 hc         1 LIG       0.062700
     19 H222        31.0280     8.4620    22.3700 hc         1 LIG       0.062700
     20 C25         29.5350     7.8610    20.8880 c3         1 LIG      -0.115400
     21 H251        29.9310     6.8940    20.4990 hc         1 LIG       0.058200
     22 H252        28.9400     7.4760    21.7490 hc         1 LIG       0.058200
     23 C28         28.6600     8.5260    19.8840 c3         1 LIG       0.127400
     24 H281        29.1960     8.7750    18.9380 h1         1 LIG       0.063200
     25 H282        28.3810     9.5660    20.1720 h1         1 LIG       0.063200
     26 C32         27.4610     6.9690    18.5140 ca         1 LIG       0.139100
     27 C33         28.4590     6.9120    17.5480 ca         1 LIG      -0.188000
     28 H33         29.3960     7.4790    17.6820 ha         1 LIG       0.151000
     29 C35         28.2660     6.1310    16.4070 ca         1 LIG      -0.091600
     30 C36         27.0780     5.4190    16.2430 ca         1 LIG      -0.128000
     31 H36         26.9200     4.8020    15.3420 ha         1 LIG       0.162000
     32 C38         26.0930     5.4920    17.2240 ca         1 LIG       0.132100
     33 C39         26.2750     6.2660    18.3610 ca         1 LIG      -0.185000
     34 H39         25.4880     6.3220    19.1320 ha         1 LIG       0.165000
     35 C42         23.7080     4.9580    17.9360 c3         1 LIG       0.025400
     36 H421        23.3170     5.9910    17.7860 h1         1 LIG       0.081200
     37 H422        22.8620     4.3460    17.5450 h1         1 LIG       0.081200
     38 C45         23.8490     4.7010    19.4200 c          1 LIG       0.539100
     39 C47         22.8690     5.3970    20.3290 c3         1 LIG      -0.206100
     40 H471        22.0610     6.0490    19.9220 hc         1 LIG       0.068033
     41 H472        23.4510     5.9930    21.0700 hc         1 LIG       0.068033
     42 H473        22.3930     4.6240    20.9770 hc         1 LIG       0.068033
     43 C51         29.3480     6.0990    15.3790 c          1 LIG       0.670700
     44 C53         32.3060     4.6300    14.7610 c3         1 LIG       0.130100
     45 H53         32.4580     4.1210    15.7410 h1         1 LIG       0.053700
     46 C57         31.3440     3.8040    13.9100 c3         1 LIG       0.156800
     47 H571        30.3390     3.7150    14.3850 h1         1 LIG       0.057200
     48 H572        31.0400     4.3430    12.9830 h1         1 LIG       0.057200
     49 C62         31.1680     1.7440    12.6190 c3         1 LIG       0.209100
     50 H621        31.5680     0.7100    12.5060 h1         1 LIG       0.038700
     51 H622        30.1470     1.5040    12.9970 h1         1 LIG       0.038700
     52 C65         31.0970     2.4440    11.2800 ca         1 LIG      -0.084300
     53 C66         32.2560     2.7350    10.5570 ca         1 LIG      -0.102000
     54 H66         33.2360     2.4500    10.9760 ha         1 LIG       0.143000
     55 C68         32.2070     3.3750     9.3220 ca         1 LIG      -0.079300
     56 C69         30.9660     3.7050     8.7950 ca         1 LIG      -0.128000
     57 H69         30.9030     4.1970     7.8100 ha         1 LIG       0.128000
     58 C71         29.8010     3.4200     9.5000 ca         1 LIG      -0.132000
     59 H71         28.8210     3.6960     9.0750 ha         1 LIG       0.129000
     60 C73         29.8660     2.7930    10.7300 ca         1 LIG      -0.129000
     61 H73         28.9370     2.5680    11.2800 ha         1 LIG       0.131000
     62 C75         33.4720     3.6780     8.5290 c3         1 LIG      -0.022400
     63 H75         33.2000     3.6000     7.4510 hc         1 LIG       0.047700
     64 C77         33.9940     5.0900     8.7460 c3         1 LIG      -0.088100
     65 H771        33.1890     5.8400     8.5640 hc         1 LIG       0.035533
     66 H772        34.8980     5.2960     8.1270 hc         1 LIG       0.035533
     67 H773        34.4510     5.2110     9.7560 hc         1 LIG       0.035533
     68 C81         34.5560     2.6680     8.7740 c3         1 LIG      -0.088100
     69 H811        34.1730     1.6330     8.6150 hc         1 LIG       0.035533
     70 H812        35.0130     2.7890     9.7840 hc         1 LIG       0.035533
     71 H813        35.4600     2.8740     8.1550 hc         1 LIG       0.035533
     72 C9          32.1510     8.4100    17.5850 ca         1 LIG      -0.214000
     73 H9          32.5780     7.6640    18.2760 ha         1 LIG       0.135000
     74 N1          30.5910     6.0100    15.8490 ns         1 LIG      -0.554900
     75 H1          30.7220     5.9220    16.8570 hn         1 LIG       0.312500
     76 N60         31.9300     2.4920    13.6150 n7         1 LIG      -0.819200
     77 H601        32.0520     1.9460    14.4680 hn         1 LIG       0.364800
     78 O18         31.4750     9.8600    19.4220 os         1 LIG      -0.337900
     79 O31         27.5390     7.6930    19.6780 os         1 LIG      -0.334900
     80 O41         24.9300     4.7540    17.0240 os         1 LIG      -0.311900
     81 O46         24.7270     3.9920    19.8620 o          1 LIG      -0.509100
     82 O52         29.0960     6.1520    14.1800 o          1 LIG      -0.603100
     83 O55         33.5550     4.7250    14.0840 oh         1 LIG      -0.595800
     84 H55         34.1530     5.2390    14.6130 ho         1 LIG       0.398000
@<TRIPOS>BOND
     1     1     2 1   
     2     1     3 1   
     3     1    44 1   
     4     1    74 1   
     5     3     4 1   
     6     3     5 1   
     7     3     6 1   
     8     6    12 ar  
     9     6    72 ar  
    10     7     8 ar  
    11     7    72 ar  
    12     7    78 1   
    13     8     9 1   
    14     8    10 ar  
    15    10    11 1   
    16    10    12 ar  
    17    12    13 1   
    18    14    15 1   
    19    14    16 1   
    20    14    17 1   
    21    14    78 1   
    22    17    18 1   
    23    17    19 1   
    24    17    20 1   
    25    20    21 1   
    26    20    22 1   
    27    20    23 1   
    28    23    24 1   
    29    23    25 1   
    30    23    79 1   
    31    26    27 ar  
    32    26    33 ar  
    33    26    79 1   
    34    27    28 1   
    35    27    29 ar  
    36    29    30 ar  
    37    29    43 1   
    38    30    31 1   
    39    30    32 ar  
    40    32    33 ar  
    41    32    80 1   
    42    33    34 1   
    43    35    36 1   
    44    35    37 1   
    45    35    38 1   
    46    35    80 1   
    47    38    39 1   
    48    38    81 2   
    49    39    40 1   
    50    39    41 1   
    51    39    42 1   
    52    43    74 1   
    53    43    82 2   
    54    44    45 1   
    55    44    46 1   
    56    44    83 1   
    57    46    47 1   
    58    46    48 1   
    59    46    76 1   
    60    49    50 1   
    61    49    51 1   
    62    49    52 1   
    63    49    76 1   
    64    52    53 ar  
    65    52    60 ar  
    66    53    54 1   
    67    53    55 ar  
    68    55    56 ar  
    69    55    62 1   
    70    56    57 1   
    71    56    58 ar  
    72    58    59 1   
    73    58    60 ar  
    74    60    61 1   
    75    62    63 1   
    76    62    64 1   
    77    62    68 1   
    78    64    65 1   
    79    64    66 1   
    80    64    67 1   
    81    68    69 1   
    82    68    70 1   
    83    68    71 1   
    84    72    73 1   
    85    74    75 1   
    86    76    77 1   
    87    83    84 1   
@<TRIPOS>SUBSTRUCTURE
     1 LIG         1 TEMP              0 ****  ****    0 ROOT
