@<TRIPOS>MOLECULE
LIG
   82    85     1     0     0
SMALL
bcc


@<TRIPOS>ATOM
      1 C3          31.7410     6.1430    14.9840 c3         1 LIG       0.075700
      2 H3          31.4530     6.5730    13.9960 h1         1 LIG       0.088700
      3 C5          32.8110     7.0500    15.6090 c3         1 LIG      -0.062100
      4 H51         33.4120     6.5020    16.3720 hc         1 LIG       0.061200
      5 H52         33.6220     7.2820    14.8800 hc         1 LIG       0.061200
      6 C8          32.2110     8.3130    16.1850 ca         1 LIG      -0.049300
      7 C11         31.4750     9.6130    18.0790 ca         1 LIG       0.123100
      8 C12         31.0330    10.6230    17.2410 ca         1 LIG      -0.157000
      9 H12         30.5740    11.5350    17.6580 ha         1 LIG       0.151000
     10 C14         31.1760    10.4710    15.8760 ca         1 LIG      -0.094000
     11 H14         30.8240    11.2650    15.1970 ha         1 LIG       0.139000
     12 C16         31.7590     9.3280    15.3540 ca         1 LIG      -0.151000
     13 H16         31.8660     9.2230    14.2610 ha         1 LIG       0.141000
     14 C19         31.7170     8.7850    20.3280 c3         1 LIG       0.125400
     15 H191        32.7080     8.9820    20.7990 h1         1 LIG       0.044700
     16 H192        31.9890     7.8360    19.8100 h1         1 LIG       0.044700
     17 C22         30.6110     8.6100    21.3350 c3         1 LIG      -0.088400
     18 H221        30.2540     9.5990    21.7050 hc         1 LIG       0.062700
     19 H222        31.0080     8.1880    22.2880 hc         1 LIG       0.062700
     20 C25         29.4450     7.7730    20.8180 c3         1 LIG      -0.114400
     21 H251        29.8080     6.8710    20.2710 hc         1 LIG       0.056200
     22 H252        28.9090     7.2690    21.6560 hc         1 LIG       0.056200
     23 C28         28.5010     8.5730    19.9750 c3         1 LIG       0.125400
     24 H281        28.9830     8.9930    19.0620 h1         1 LIG       0.062700
     25 H282        28.2120     9.5420    20.4460 h1         1 LIG       0.062700
     26 C32         27.3300     7.1020    18.4650 ca         1 LIG       0.110100
     27 C33         28.3910     7.0200    17.5660 ca         1 LIG      -0.164000
     28 H33         29.3580     7.4970    17.7990 ha         1 LIG       0.148000
     29 C35         28.2170     6.3280    16.3670 ca         1 LIG      -0.114600
     30 C36         26.9820     5.7540    16.0760 ca         1 LIG      -0.109000
     31 H36         26.8370     5.2310    15.1160 ha         1 LIG       0.147000
     32 C38         25.9200     5.8320    16.9880 ca         1 LIG      -0.068300
     33 C39         26.1050     6.5120    18.1890 ca         1 LIG      -0.104000
     34 H39         25.2800     6.5810    18.9180 ha         1 LIG       0.170000
     35 C41         24.5960     5.1770    16.6780 c3         1 LIG       0.170700
     36 H411        23.8520     5.9140    16.2940 h1         1 LIG       0.042200
     37 H412        24.6620     4.5200    15.7800 h1         1 LIG       0.042200
     38 C45         22.7440     4.0800    17.6740 c3         1 LIG       0.115700
     39 H451        22.3550     3.5270    18.5610 h1         1 LIG       0.035700
     40 H452        22.5940     3.4910    16.7390 h1         1 LIG       0.035700
     41 H453        22.1000     4.9600    17.4390 h1         1 LIG       0.035700
     42 C49         29.3310     6.2720    15.3660 c          1 LIG       0.669700
     43 C51         32.2860     4.7350    14.7520 c3         1 LIG       0.131100
     44 H8          32.5000     4.2480    15.7320 h1         1 LIG       0.052700
     45 C55         31.2890     3.8780    13.9520 c3         1 LIG       0.156800
     46 H551        30.3340     3.6960    14.4970 h1         1 LIG       0.057700
     47 H552        30.8540     4.4160    13.0770 h1         1 LIG       0.057700
     48 C60         31.2760     1.8510    12.5520 c3         1 LIG       0.209100
     49 H601        31.7130     0.8290    12.4620 h1         1 LIG       0.037200
     50 H602        30.2510     1.5850    12.9000 h1         1 LIG       0.037200
     51 C63         31.2220     2.5390    11.1870 ca         1 LIG      -0.084300
     52 C64         32.3910     2.8500    10.4870 ca         1 LIG      -0.102000
     53 H64         33.3680     2.5820    10.9230 ha         1 LIG       0.143000
     54 C66         32.3500     3.4910     9.2520 ca         1 LIG      -0.079300
     55 C67         31.1150     3.8110     8.7090 ca         1 LIG      -0.128000
     56 H67         31.0620     4.3090     7.7260 ha         1 LIG       0.129000
     57 C69         29.9470     3.5100     9.3910 ca         1 LIG      -0.132000
     58 H69         28.9710     3.7760     8.9520 ha         1 LIG       0.129000
     59 C71         30.0010     2.8780    10.6190 ca         1 LIG      -0.129000
     60 H71         29.0650     2.6410    11.1530 ha         1 LIG       0.131000
     61 C73         33.6240     3.8160     8.4780 c3         1 LIG      -0.022400
     62 H73         33.3590     3.8020     7.3950 hc         1 LIG       0.048700
     63 C75         34.1550     5.2070     8.7870 c3         1 LIG      -0.088100
     64 H751        33.3540     5.9680     8.6390 hc         1 LIG       0.035867
     65 H752        35.0690     5.4440     8.1940 hc         1 LIG       0.035867
     66 H753        34.6010     5.2650     9.8070 hc         1 LIG       0.035867
     67 C79         34.7060     2.7880     8.6780 c3         1 LIG      -0.088100
     68 H791        34.3170     1.7680     8.4510 hc         1 LIG       0.035867
     69 H792        35.1520     2.8460     9.6980 hc         1 LIG       0.035867
     70 H793        35.6200     3.0250     8.0850 hc         1 LIG       0.035867
     71 C9          32.0530     8.4580    17.5620 ca         1 LIG      -0.216000
     72 H9          32.3860     7.6560    18.2420 ha         1 LIG       0.135000
     73 N1          30.5670     6.1400    15.8380 ns         1 LIG      -0.554900
     74 H1          30.6960     6.0320    16.8440 hn         1 LIG       0.311500
     75 N58         31.9880     2.6330    13.5770 n7         1 LIG      -0.818200
     76 H581        32.1780     2.0620    14.4010 hn         1 LIG       0.364800
     77 O18         31.3110     9.8230    19.4200 os         1 LIG      -0.336900
     78 O31         27.3740     7.7390    19.6780 os         1 LIG      -0.331900
     79 O44         24.0970     4.4670    17.8160 os         1 LIG      -0.420600
     80 O50         29.1080     6.3620    14.1680 o          1 LIG      -0.607100
     81 O53         33.4930     4.8500    13.9960 oh         1 LIG      -0.595800
     82 H53         34.1080     5.3790    14.4900 ho         1 LIG       0.398000
@<TRIPOS>BOND
     1     1     2 1   
     2     1     3 1   
     3     1    43 1   
     4     1    73 1   
     5     3     4 1   
     6     3     5 1   
     7     3     6 1   
     8     6    12 ar  
     9     6    71 ar  
    10     7     8 ar  
    11     7    71 ar  
    12     7    77 1   
    13     8     9 1   
    14     8    10 ar  
    15    10    11 1   
    16    10    12 ar  
    17    12    13 1   
    18    14    15 1   
    19    14    16 1   
    20    14    17 1   
    21    14    77 1   
    22    17    18 1   
    23    17    19 1   
    24    17    20 1   
    25    20    21 1   
    26    20    22 1   
    27    20    23 1   
    28    23    24 1   
    29    23    25 1   
    30    23    78 1   
    31    26    27 ar  
    32    26    33 ar  
    33    26    78 1   
    34    27    28 1   
    35    27    29 ar  
    36    29    30 ar  
    37    29    42 1   
    38    30    31 1   
    39    30    32 ar  
    40    32    33 ar  
    41    32    35 1   
    42    33    34 1   
    43    35    36 1   
    44    35    37 1   
    45    35    79 1   
    46    38    39 1   
    47    38    40 1   
    48    38    41 1   
    49    38    79 1   
    50    42    73 1   
    51    42    80 2   
    52    43    44 1   
    53    43    45 1   
    54    43    81 1   
    55    45    46 1   
    56    45    47 1   
    57    45    75 1   
    58    48    49 1   
    59    48    50 1   
    60    48    51 1   
    61    48    75 1   
    62    51    52 ar  
    63    51    59 ar  
    64    52    53 1   
    65    52    54 ar  
    66    54    55 ar  
    67    54    61 1   
    68    55    56 1   
    69    55    57 ar  
    70    57    58 1   
    71    57    59 ar  
    72    59    60 1   
    73    61    62 1   
    74    61    63 1   
    75    61    67 1   
    76    63    64 1   
    77    63    65 1   
    78    63    66 1   
    79    67    68 1   
    80    67    69 1   
    81    67    70 1   
    82    71    72 1   
    83    73    74 1   
    84    75    76 1   
    85    81    82 1   
@<TRIPOS>SUBSTRUCTURE
     1 LIG         1 TEMP              0 ****  ****    0 ROOT
