@<TRIPOS>MOLECULE
Cpptraj Generated mol2 file.
    6     5     1     0     0
SMALL
USER_CHARGES


@<TRIPOS>ATOM
      1 C1         15.6389   16.0156   15.6860 c3         1 methano   0.116700
      2 O2         17.0549   16.0066   15.6900 oh         1 methano  -0.598800
      3 H3         15.2779   16.4116   14.7340 h1         1 methano   0.028700
      4 H4         15.2759   16.6326   16.5120 h1         1 methano   0.028700
      5 H5         15.2779   14.9916   15.8130 h1         1 methano   0.028700
      6 H6         17.3459   16.9276   15.5760 ho         1 methano   0.396000
@<TRIPOS>BOND
    1     1     2 1
    2     2     6 1
    3     1     3 1
    4     1     4 1
    5     1     5 1
@<TRIPOS>SUBSTRUCTURE
      1 methano              1 ****               0 ****  **** 
