@<TRIPOS>MOLECULE
Cpptraj Generated mol2 file.
   33    34     1     0     0
SMALL
USER_CHARGES


@<TRIPOS>ATOM
      1 C1         21.7802   16.2117   15.8142 ca         1 ejm55   -0.095000
      2 C2         21.8163   15.9198   17.1749 ca         1 ejm55   -0.128000
      3 C3         21.8567   16.9473   18.1112 ca         1 ejm55    0.052400
      4 C4         21.8721   18.2894   17.6888 ca         1 ejm55   -0.144600
      5 C5         21.8222   18.5736   16.3099 ca         1 ejm55    0.052400
      6 C6         21.7829   17.5339   15.3897 ca         1 ejm55   -0.128000
      7 Cl1        21.8131   20.2235   15.7571 cl         1 ejm55   -0.059900
      8 C7         21.9385   19.4177   18.6455 c          1 ejm55    0.692700
      9 O1         23.0014   19.9971   18.7964 o          1 ejm55   -0.548100
     10 N1         20.8075   19.7830   19.2801 ns         1 ejm55   -0.461100
     11 C8         20.5981   20.8420   20.1695 ca         1 ejm55    0.130600
     12 C9         21.4769   21.9207   20.3908 ca         1 ejm55   -0.299300
     13 C10        21.0781   22.9552   21.2320 ca         1 ejm55    0.445200
     14 N2         19.8918   22.9309   21.8322 nb         1 ejm55   -0.728000
     15 C11        19.0316   21.9280   21.6600 ca         1 ejm55    0.551200
     16 C12        19.3510   20.8885   20.7837 ca         1 ejm55   -0.322300
     17 N3         17.7742   21.9932   22.2707 ns         1 ejm55   -0.519400
     18 C13        16.9723   20.9468   22.6042 c          1 ejm55    0.746100
     19 O2         17.2830   19.7838   22.4104 o          1 ejm55   -0.577000
     20 Cl2        21.8622   16.5554   19.7971 cl         1 ejm55   -0.059900
     21 H1         21.7498   15.4110   15.0902 ha         1 ejm55    0.148000
     22 H2         21.8134   14.8918   17.5062 ha         1 ejm55    0.158000
     23 H3         21.7543   17.7621   14.3347 ha         1 ejm55    0.158000
     24 H4         19.9554   19.2596   19.1347 hn         1 ejm55    0.331500
     25 H5         22.4437   21.9358   19.9087 ha         1 ejm55    0.184000
     26 H6         21.7363   23.7936   21.4065 h4         1 ejm55    0.028100
     27 H7         18.6220   20.1162   20.5833 ha         1 ejm55    0.179000
     28 H8         17.3737   22.8892   22.5104 hn         1 ejm55    0.352500
     29 C14        14.9622   20.1616   23.9199 c3         1 ejm55    0.138700
     30 H9         14.1660   20.5518   24.5546 h1         1 ejm55    0.055033
     31 H10        14.5353   19.4904   23.1745 h1         1 ejm55    0.055033
     32 O3         15.6350   21.3113   23.2168 os         1 ejm55   -0.442900
     33 H11        15.6896   19.6243   24.5282 h1         1 ejm55    0.055033
@<TRIPOS>BOND
    1    29    32 1
    2    18    19 1
    3    18    32 1
    4    17    18 1
    5    15    16 1
    6    15    17 1
    7    14    15 1
    8    13    14 1
    9    12    13 1
   10    11    12 1
   11    11    16 1
   12    10    11 1
   13     8     9 1
   14     8    10 1
   15     5     6 1
   16     5     7 1
   17     4     5 1
   18     4     8 1
   19     3     4 1
   20     3    20 1
   21     2     3 1
   22     1     2 1
   23     1     6 1
   24    29    30 1
   25    29    31 1
   26    29    33 1
   27    17    28 1
   28    16    27 1
   29    13    26 1
   30    12    25 1
   31    10    24 1
   32     6    23 1
   33     2    22 1
   34     1    21 1
@<TRIPOS>SUBSTRUCTURE
      1 ejm55              1 ****               0 ****  **** 
