@<TRIPOS>MOLECULE
LIG
   12    12     1     0     0
SMALL
bcc


@<TRIPOS>ATOM
      1 C            0.9900     0.0370    -0.0980 c3         1 LIG      -0.130400
      2 C1           2.4550    -0.1450    -0.0980 cc         1 LIG       0.249000
      3 O            3.2120     0.9870    -0.1040 os         1 LIG      -0.366800
      4 C2           4.5120     0.5940    -0.1040 cc         1 LIG       0.234600
      5 C3           4.6000    -0.7780    -0.0980 cd         1 LIG      -0.262300
      6 C4           3.2690    -1.2580    -0.0950 cd         1 LIG      -0.264300
      7 H            0.7190     1.0980    -0.0830 hc         1 LIG       0.057033
      8 H1           0.5470    -0.4390     0.7820 hc         1 LIG       0.057033
      9 H2           0.5490    -0.4140    -0.9920 hc         1 LIG       0.057033
     10 H3           5.2400     1.3930    -0.1080 h4         1 LIG       0.051100
     11 H4           5.5120    -1.3580    -0.0970 ha         1 LIG       0.160000
     12 H5           2.9400    -2.2880    -0.0900 ha         1 LIG       0.160000
@<TRIPOS>BOND
     1     1     2 1   
     2     1     7 1   
     3     1     8 1   
     4     1     9 1   
     5     2     3 1   
     6     2     6 2   
     7     3     4 1   
     8     4     5 2   
     9     4    10 1   
    10     5     6 1   
    11     5    11 1   
    12     6    12 1   
@<TRIPOS>SUBSTRUCTURE
     1 LIG         1 TEMP              0 ****  ****    0 ROOT
