@<TRIPOS>MOLECULE
LIG
   29    31     1     0     0
SMALL
bcc


@<TRIPOS>ATOM
      1 H1           1.1630     0.9490     2.3640 ha         1 LIG       0.133000
      2 C2           0.5600     0.6350     1.5000 ca         1 LIG      -0.083000
      3 C3          -0.7980     0.9020     1.4410 ca         1 LIG      -0.159000
      4 H4          -1.2870     1.4370     2.2690 ha         1 LIG       0.128000
      5 C5          -1.5790     0.5040     0.3410 ca         1 LIG      -0.112000
      6 H6          -2.6540     0.7410     0.3430 ha         1 LIG       0.128000
      7 C7          -1.0330    -0.1760    -0.7430 ca         1 LIG      -0.088300
      8 C8           0.3490    -0.4510    -0.6910 ca         1 LIG      -0.041200
      9 N9           1.1800    -1.1050    -1.6030 na         1 LIG      -0.192400
     10 C10          1.1570    -0.0450     0.4380 ca         1 LIG      -0.095800
     11 C11          2.5040    -0.4860     0.1550 cc         1 LIG      -0.190200
     12 C12          2.4780    -1.1210    -1.0840 cd         1 LIG      -0.111100
     13 C13         -1.8770    -0.5890    -1.9010 c3         1 LIG      -0.016400
     14 H14         -2.9340    -0.2540    -1.7000 hc         1 LIG       0.055700
     15 C15         -1.4140     0.0440    -3.2170 c3         1 LIG      -0.081400
     16 H16         -2.2090     0.7290    -3.6070 hc         1 LIG       0.049700
     17 H17         -0.4960     0.6660    -3.0610 hc         1 LIG       0.049700
     18 C18         -1.1440    -1.0730    -4.2130 c3         1 LIG      -0.084400
     19 H19         -1.7900    -0.9520    -5.1190 hc         1 LIG       0.039700
     20 H20         -0.0810    -1.0360    -4.5650 hc         1 LIG       0.039700
     21 C21         -1.4340    -2.3990    -3.5280 c3         1 LIG      -0.084400
     22 H22         -2.2290    -2.9590    -4.0820 hc         1 LIG       0.039700
     23 H23         -0.5220    -3.0490    -3.5250 hc         1 LIG       0.039700
     24 C24         -1.8850    -2.1080    -2.1040 c3         1 LIG      -0.081400
     25 H25         -2.9180    -2.5060    -1.9350 hc         1 LIG       0.049700
     26 H26         -1.2150    -2.6150    -1.3650 hc         1 LIG       0.049700
     27 H27          3.3680    -0.3440     0.7970 ha         1 LIG       0.155000
     28 H28          3.2910    -1.5880    -1.6420 h4         1 LIG       0.163000
     29 H29          0.8810    -1.4840    -2.4630 hn         1 LIG       0.304700
@<TRIPOS>BOND
     1     1     2 1   
     2     2     3 ar  
     3     2    10 ar  
     4     3     4 1   
     5     3     5 ar  
     6     5     6 1   
     7     5     7 ar  
     8     7     8 ar  
     9     7    13 1   
    10     8     9 1   
    11     8    10 ar  
    12     9    12 1   
    13     9    29 1   
    14    10    11 1   
    15    11    12 2   
    16    11    27 1   
    17    12    28 1   
    18    13    14 1   
    19    13    15 1   
    20    13    24 1   
    21    15    16 1   
    22    15    17 1   
    23    15    18 1   
    24    18    19 1   
    25    18    20 1   
    26    18    21 1   
    27    21    22 1   
    28    21    23 1   
    29    21    24 1   
    30    24    25 1   
    31    24    26 1   
@<TRIPOS>SUBSTRUCTURE
     1 LIG         1 TEMP              0 ****  ****    0 ROOT
