@<TRIPOS>MOLECULE
LIG
8 7 1 0 1
SMALL
USER_CHARGES
@<TRIPOS>CRYSIN
   32.2653    32.1581    31.3493    90.0000    90.0000    90.0000  1  1
@<TRIPOS>ATOM
       1 C1          15.5422    16.1913    15.6255 c3            1 LIG       -0.094350
       2 C2          17.0542    16.1803    15.6205 c3            1 LIG       -0.094350
       3 H3          15.1552    15.4653    16.3475 hc            1 LIG        0.031450
       4 H4          15.1512    15.9343    14.6365 hc            1 LIG        0.031450
       5 H5          15.1652    17.1813    15.8985 hc            1 LIG        0.031450
       6 H6          17.4302    15.1893    15.3485 hc            1 LIG        0.031450
       7 H7          17.4432    16.4373    16.6095 hc            1 LIG        0.031450
       8 H8          17.4402    16.9053    14.8985 hc            1 LIG        0.031450
@<TRIPOS>BOND
       1        1        2 1
       2        2        6 1
       3        2        7 1
       4        2        8 1
       5        1        3 1
       6        1        4 1
       7        1        5 1
@<TRIPOS>SUBSTRUCTURE
       1 LIG             1 RESIDUE    0 **** ROOT      0
