@<TRIPOS>MOLECULE
LIG
    8     7     1     0     0
SMALL
bcc


@<TRIPOS>ATOM
      1 C            0.8150    -0.5380     0.4930 c3         1 LIG      -0.094100
      2 C1           2.1550    -0.0520    -0.0120 c3         1 LIG      -0.094100
      3 H            0.0000     0.0010     0.0010 hc         1 LIG       0.031700
      4 H1           0.6930    -1.6070     0.2910 hc         1 LIG       0.031700
      5 H2           0.7300    -0.3800     1.5720 hc         1 LIG       0.031700
      6 H3           2.9700    -0.5910     0.4800 hc         1 LIG       0.031700
      7 H4           2.2770     1.0170     0.1910 hc         1 LIG       0.031700
      8 H5           2.2400    -0.2100    -1.0910 hc         1 LIG       0.031700
@<TRIPOS>BOND
     1     1     2 1   
     2     1     3 1   
     3     1     4 1   
     4     1     5 1   
     5     2     6 1   
     6     2     7 1   
     7     2     8 1   
@<TRIPOS>SUBSTRUCTURE
     1 LIG         1 TEMP              0 ****  ****    0 ROOT
