@<TRIPOS>MOLECULE
LIG
    6     5     1     0     0
SMALL
bcc


@<TRIPOS>ATOM
      1 C            0.2830     0.7680     0.7240 c3         1 LIG       0.116700
      2 O           -0.3110     2.0010     0.3620 oh         1 LIG      -0.598800
      3 H           -0.0650     0.4720     1.7160 h1         1 LIG       0.028700
      4 H1           1.3710     0.8740     0.7240 h1         1 LIG       0.028700
      5 H2          -0.0070     0.0070    -0.0040 h1         1 LIG       0.028700
      6 H3           0.0220     2.2300    -0.5220 ho         1 LIG       0.396000
@<TRIPOS>BOND
     1     1     2 1   
     2     1     3 1   
     3     1     4 1   
     4     1     5 1   
     5     2     6 1   
@<TRIPOS>SUBSTRUCTURE
     1 LIG         1 TEMP              0 ****  ****    0 ROOT
