@<TRIPOS>MOLECULE
LIG
    5     4     1     0     0
SMALL
bcc


@<TRIPOS>ATOM
      1 C            0.0000     0.0000     0.0000 c3         1 LIG      -0.108800
      2 H           -0.0570     1.0870    -0.0860 hc         1 LIG       0.026700
      3 H1           0.6200    -0.3970    -0.8070 hc         1 LIG       0.026700
      4 H2          -1.0040    -0.4240    -0.0700 hc         1 LIG       0.026700
      5 H3           0.4420    -0.2670     0.9630 hc         1 LIG       0.026700
@<TRIPOS>BOND
     1     1     2 1   
     2     1     3 1   
     3     1     4 1   
     4     1     5 1   
@<TRIPOS>SUBSTRUCTURE
     1 LIG         1 TEMP              0 ****  ****    0 ROOT
