@<TRIPOS>MOLECULE
LIG
   21    22     1     0     0
SMALL
No Charge or Current Charge


@<TRIPOS>ATOM
      1 O6          -2.3040    -2.5050     1.5630 o        101 LIG      -0.598600
      2 C6          -1.6920    -1.5600     1.0090 c        101 LIG       0.303000
      3 N1          -0.3490    -1.5660     1.1070 ns       101 LIG      -0.280500
      4 C2           0.3610    -0.5580     0.5210 cc       101 LIG       0.355000
      5 N2           1.7820    -0.5040     0.5870 ns       101 LIG      -0.566900
      6 C3           2.4660     0.5820    -0.0510 c        101 LIG       0.728300
      7 C1           3.9460     0.6530     0.0080 c3       101 LIG      -0.450400
      8 O2           1.8180     1.4900    -0.6710 o        101 LIG      -0.555200
      9 N3          -0.3340     0.4010    -0.1340 nd       101 LIG      -0.315600
     10 C4          -1.6540     0.4270    -0.2430 cd       101 LIG       0.074700
     11 C5          -2.4060    -0.5930     0.3480 cc       101 LIG       0.466500
     12 N7          -3.6980    -0.3340     0.0930 nc       101 LIG      -0.607500
     13 C8          -3.7870     0.8090    -0.6350 cd       101 LIG       0.108600
     14 N9          -2.5290     1.2800    -0.8440 na       101 LIG      -0.312200
     15 H2           0.1690    -2.3320     1.6280 hn       101 LIG       0.340400
     16 H4           2.2790    -1.2630     1.1010 hn       101 LIG       0.348200
     17 H1           4.2260     1.7250     0.0730 hc       101 LIG       0.141500
     18 H7           4.3780     0.1370     0.8630 hc       101 LIG       0.141500
     19 H3           4.3330     0.2760    -0.9530 hc       101 LIG       0.141500
     20 H5          -4.6840     1.2910    -1.0030 h5       101 LIG       0.186600
     21 H6          -2.3210     2.1440    -1.3750 hn       101 LIG       0.351100
@<TRIPOS>BOND
     1     1     2 2   
     2     2     3 1   
     3     2    11 1   
     4     3     4 1   
     5     3    15 1   
     6     4     5 1   
     7     4     9 2   
     8     5     6 1   
     9     5    16 1   
    10     6     7 1   
    11     6     8 2   
    12     7    17 1   
    13     7    18 1   
    14     7    19 1   
    15     9    10 1   
    16    10    11 2   
    17    10    14 1   
    18    11    12 1   
    19    12    13 2   
    20    13    14 1   
    21    13    20 1   
    22    14    21 1   
@<TRIPOS>SUBSTRUCTURE
     1 LIG         1 TEMP              0 ****  ****    0 ROOT
