@<TRIPOS>MOLECULE
LIG
   17    18     1     0     0
SMALL
No Charge or Current Charge


@<TRIPOS>ATOM
      1 O6           0.3830     2.8920    -0.1320 o        101 LIG      -0.559600
      2 C6           0.1440     1.6670    -0.0610 c        101 LIG       0.369400
      3 N1          -1.1210     1.1940     0.1420 ns       101 LIG      -0.279800
      4 C2          -1.3370    -0.1240     0.2110 cc       101 LIG       0.293200
      5 C3          -2.7210    -0.6280     0.4340 c3       101 LIG       0.512100
      6 F3          -2.8040    -1.7930    -0.3290 f        101 LIG      -0.185400
      7 F2          -3.6780     0.2480    -0.0330 f        101 LIG      -0.165200
      8 F1          -2.9310    -0.9630     1.7580 f        101 LIG      -0.165300
      9 N3          -0.3180    -0.9950     0.0820 nd       101 LIG      -0.593800
     10 C4           0.9500    -0.6010    -0.1200 cd       101 LIG       0.408300
     11 C5           1.1820     0.7650    -0.1930 cc       101 LIG       0.326600
     12 N7           2.5230     0.8820    -0.3980 nc       101 LIG      -0.581300
     13 C8           3.0960    -0.3320    -0.4500 cd       101 LIG       0.122400
     14 N9           2.1150    -1.2580    -0.2770 na       101 LIG      -0.396100
     15 H2          -1.9120     1.8930     0.2420 hn       101 LIG       0.324800
     16 H1           4.1490    -0.5630    -0.6030 h5       101 LIG       0.201300
     17 H3           2.2780    -2.2850    -0.2730 hn       101 LIG       0.368400
@<TRIPOS>BOND
     1     1     2 2   
     2     2     3 1   
     3     2    11 1   
     4     3     4 1   
     5     3    15 1   
     6     4     5 1   
     7     4     9 2   
     8     5     6 1   
     9     5     7 1   
    10     5     8 1   
    11     9    10 1   
    12    10    11 2   
    13    10    14 1   
    14    11    12 1   
    15    12    13 2   
    16    13    14 1   
    17    13    16 1   
    18    14    17 1   
@<TRIPOS>SUBSTRUCTURE
     1 LIG         1 TEMP              0 ****  ****    0 ROOT
