@<TRIPOS>MOLECULE
LIG
   28    30     1     0     0
SMALL
No Charge or Current Charge


@<TRIPOS>ATOM
      1 O6          -4.5700    -1.8640     0.7250 o        101 LIG      -0.582100
      2 C6          -3.6140    -1.1080     0.3720 c        101 LIG       0.301400
      3 N1          -2.4150    -1.6990     0.1200 ns       101 LIG      -0.113700
      4 C2          -1.4050    -0.9180    -0.2530 cc       101 LIG       0.312500
      5 N2          -0.0640    -1.4110    -0.4850 nu       101 LIG      -0.395000
      6 N6           0.8710    -0.8950     0.4510 nu       101 LIG      -0.591600
      7 C11          2.1980    -0.5180     0.1520 ca       101 LIG       0.203600
      8 C9           2.4660     0.8290    -0.0130 ca       101 LIG      -0.055400
      9 C10          3.7740     1.2550    -0.2630 ca       101 LIG      -0.235300
     10 C3           4.7960     0.3030    -0.3450 ca       101 LIG      -0.101200
     11 C1           4.4830    -1.0410    -0.1750 ca       101 LIG      -0.202500
     12 C7           3.1990    -1.4590     0.0710 ca       101 LIG      -0.090100
     13 N3          -1.5190     0.4310    -0.3930 nd       101 LIG      -0.501400
     14 C4          -2.7030     1.0370    -0.1460 cd       101 LIG       0.281800
     15 C5          -3.7730     0.2600     0.2460 cc       101 LIG       0.338800
     16 N7          -4.8480     1.0880     0.4550 nc       101 LIG      -0.570900
     17 C8          -4.4210     2.3660     0.1880 cd       101 LIG       0.098500
     18 N9          -3.1080     2.3260    -0.1790 na       101 LIG      -0.369600
     19 H2          -2.2990    -2.7220     0.2090 hn       101 LIG       0.270800
     20 H4           0.1780    -2.0670    -1.2510 hn       101 LIG       0.384500
     21 H1           0.5870    -0.7750     1.4710 hn       101 LIG       0.386200
     22 H7           1.6670     1.5510     0.0470 ha       101 LIG       0.118200
     23 H10          4.0300     2.3000    -0.3940 ha       101 LIG       0.159200
     24 H9           5.8240     0.6300    -0.5380 ha       101 LIG       0.138300
     25 H3           5.2820    -1.7610    -0.2370 ha       101 LIG       0.144200
     26 H5           2.9490    -2.5270     0.2000 ha       101 LIG       0.118000
     27 H8          -5.0640     3.2410     0.2750 h5       101 LIG       0.192800
     28 H6          -2.5010     3.1490    -0.4390 hn       101 LIG       0.360000
@<TRIPOS>BOND
     1     1     2 2   
     2     2     3 1   
     3     2    15 1   
     4     3     4 1   
     5     3    19 1   
     6     4     5 1   
     7     4    13 2   
     8     5     6 1   
     9     5    20 1   
    10     6     7 1   
    11     6    21 1   
    12     7     8 ar  
    13     7    12 ar  
    14     8     9 ar  
    15     8    22 1   
    16     9    10 ar  
    17     9    23 1   
    18    10    11 ar  
    19    10    24 1   
    20    11    12 ar  
    21    11    25 1   
    22    12    26 1   
    23    13    14 1   
    24    14    15 2   
    25    14    18 1   
    26    15    16 1   
    27    16    17 2   
    28    17    18 1   
    29    17    27 1   
    30    18    28 1   
@<TRIPOS>SUBSTRUCTURE
     1 LIG         1 TEMP              0 ****  ****    0 ROOT
