@<TRIPOS>MOLECULE
LIG
   21    22     1     0     0
SMALL
No Charge or Current Charge


@<TRIPOS>ATOM
      1 O6           1.9920    -2.8750     0.6020 o        101 LIG      -0.605100
      2 C6           1.4760    -1.7250     0.4620 c        101 LIG       0.440700
      3 N1           0.1510    -1.5220     0.6240 ns       101 LIG      -0.415200
      4 C2          -0.3680    -0.2680     0.4650 cc       101 LIG       0.519600
      5 N2          -1.7410    -0.0370     0.6620 nu       101 LIG      -0.365200
      6 N4          -2.7620    -0.2850    -0.2340 n7       101 LIG      -0.402500
      7 C3          -3.7200     0.8190    -0.1590 c3       101 LIG      -0.043300
      8 N3           0.4270     0.7720     0.1470 nd       101 LIG      -0.568300
      9 C4           1.7550     0.5710    -0.0160 cd       101 LIG       0.312700
     10 C5           2.3280    -0.6920     0.1370 cc       101 LIG       0.290300
     11 N7           3.6660    -0.5820    -0.0860 nc       101 LIG      -0.564200
     12 C8           3.9180     0.7150    -0.3680 cd       101 LIG       0.118200
     13 N9           2.7630     1.4180    -0.3280 na       101 LIG      -0.369700
     14 H2          -0.4640    -2.3210     0.8670 hn       101 LIG       0.350900
     15 H4          -2.0150     0.3740     1.6000 hn       101 LIG       0.262200
     16 H1          -3.2080    -1.1850     0.0760 hn       101 LIG       0.285900
     17 H7          -3.1060     1.7400    -0.3010 h1       101 LIG       0.070500
     18 H3          -4.1860     0.8410     0.8620 h1       101 LIG       0.070500
     19 H5          -4.4910     0.7340    -0.9240 h1       101 LIG       0.070500
     20 H8           4.9260     1.0690    -0.5880 h5       101 LIG       0.186300
     21 H6           2.6590     2.4410    -0.5070 hn       101 LIG       0.355200
@<TRIPOS>BOND
     1     1     2 2   
     2     2     3 1   
     3     2    10 1   
     4     3     4 1   
     5     3    14 1   
     6     4     5 1   
     7     4     8 2   
     8     5     6 1   
     9     5    15 1   
    10     6     7 1   
    11     6    16 1   
    12     7    17 1   
    13     7    18 1   
    14     7    19 1   
    15     8     9 1   
    16     9    10 2   
    17     9    13 1   
    18    10    11 1   
    19    11    12 2   
    20    12    13 1   
    21    12    20 1   
    22    13    21 1   
@<TRIPOS>SUBSTRUCTURE
     1 LIG         1 TEMP              0 ****  ****    0 ROOT
