@<TRIPOS>MOLECULE
LIG
   20    21     1     0     0
SMALL
No Charge or Current Charge


@<TRIPOS>ATOM
      1 O6           1.2290    -2.6610     0.4190 o        101 LIG      -0.599100
      2 C6           1.0020    -1.4220     0.3390 c        101 LIG       0.410400
      3 N1          -0.2570    -1.0010     0.2070 ns       101 LIG      -0.344200
      4 C2          -0.5510     0.3090     0.1190 cc       101 LIG       0.584800
      5 N2          -1.9180     0.7230     0.0050 nu       101 LIG      -0.565700
      6 O2          -2.6830     0.1020    -0.9230 os       101 LIG      -0.091800
      7 C3          -3.7170    -0.5120    -0.2420 c3       101 LIG      -0.135800
      8 N3           0.4440     1.2040     0.1610 nd       101 LIG      -0.692100
      9 C4           1.7190     0.8210     0.2920 cd       101 LIG       0.423700
     10 C5           2.0660    -0.5250     0.3900 cc       101 LIG       0.266800
     11 N7           3.3910    -0.5990     0.5190 nc       101 LIG      -0.557300
     12 C8           3.8710     0.6830     0.5060 cd       101 LIG       0.080400
     13 N9           2.8360     1.5390     0.3670 na       101 LIG      -0.389000
     14 H2          -1.0030    -1.7140     0.1810 hn       101 LIG       0.334800
     15 H4          -2.2480     1.4780     0.6400 hn       101 LIG       0.406700
     16 H1          -3.4420    -1.4800     0.1800 h1       101 LIG       0.103100
     17 H7          -4.5170    -0.6970    -1.0010 h1       101 LIG       0.103100
     18 H3          -4.0640     0.1850     0.5390 h1       101 LIG       0.103100
     19 H5           4.8910     0.9940     0.5950 h5       101 LIG       0.192500
     20 H6           2.9520     2.5710     0.3230 hn       101 LIG       0.365600
@<TRIPOS>BOND
     1     1     2 2   
     2     2     3 1   
     3     2    10 1   
     4     3     4 1   
     5     3    14 1   
     6     4     5 1   
     7     4     8 2   
     8     5     6 1   
     9     5    15 1   
    10     6     7 1   
    11     7    16 1   
    12     7    17 1   
    13     7    18 1   
    14     8     9 1   
    15     9    10 2   
    16     9    13 1   
    17    10    11 1   
    18    11    12 2   
    19    12    13 1   
    20    12    19 1   
    21    13    20 1   
@<TRIPOS>SUBSTRUCTURE
     1 LIG         1 TEMP              0 ****  ****    0 ROOT
