@<TRIPOS>MOLECULE
LIG
   30    32     1     0     0
SMALL
No Charge or Current Charge


@<TRIPOS>ATOM
      1 O6           4.2480    -2.3390     1.3100 o        101 LIG      -0.589600
      2 C6           3.5520    -1.3810     0.8500 c        101 LIG       0.323100
      3 N1           2.2060    -1.5380     0.8300 ns       101 LIG      -0.220800
      4 C2           1.4870    -0.5200     0.3430 cc       101 LIG       0.501300
      5 N2           0.0370    -0.5850     0.2260 nu       101 LIG      -0.566100
      6 O2          -0.4040    -0.7160    -1.0280 os       101 LIG      -0.109700
      7 C11         -1.6320    -1.2440    -1.1640 c3       101 LIG      -0.037600
      8 C9          -2.6580    -0.4220    -0.4830 ca       101 LIG       0.017400
      9 C10         -3.1980     0.6220    -1.2070 ca       101 LIG      -0.058900
     10 C3          -4.1930     1.4530    -0.7000 ca       101 LIG      -0.200700
     11 C1          -4.6240     1.1920     0.5690 ca       101 LIG      -0.092900
     12 C12         -4.1090     0.1500     1.3370 ca       101 LIG      -0.176900
     13 C7          -3.1160    -0.6600     0.7950 ca       101 LIG      -0.113300
     14 N3           2.0120     0.6280    -0.1210 nd       101 LIG      -0.590800
     15 C4           3.3500     0.7850    -0.1020 cd       101 LIG       0.347300
     16 C5           4.1520    -0.2350     0.3920 cc       101 LIG       0.302000
     17 N7           5.4590     0.1540     0.2920 nc       101 LIG      -0.544300
     18 C8           5.4470     1.3940    -0.2550 cd       101 LIG       0.065900
     19 N9           4.1660     1.7720    -0.4910 na       101 LIG      -0.347300
     20 H2           1.7610    -2.4100     1.1810 hn       101 LIG       0.309300
     21 H4          -0.5480    -0.5330     1.0850 hn       101 LIG       0.390100
     22 H1          -1.6300    -2.2960    -0.7520 h1       101 LIG       0.088600
     23 H7          -1.9310    -1.3740    -2.2360 h1       101 LIG       0.088600
     24 H11         -2.8510     0.8450    -2.2240 ha       101 LIG       0.123500
     25 H10         -4.6050     2.2750    -1.3010 ha       101 LIG       0.155200
     26 H9          -5.4050     1.8210     0.9960 ha       101 LIG       0.125100
     27 H3          -4.5010     0.0070     2.3240 ha       101 LIG       0.151400
     28 H5          -2.6960    -1.4690     1.3610 ha       101 LIG       0.101700
     29 H8           6.3580     1.9310    -0.4440 h5       101 LIG       0.200700
     30 H6           3.8670     2.6960    -0.9150 hn       101 LIG       0.357700
@<TRIPOS>BOND
     1     1     2 2   
     2     2     3 1   
     3     2    16 1   
     4     3     4 1   
     5     3    20 1   
     6     4     5 1   
     7     4    14 2   
     8     5     6 1   
     9     5    21 1   
    10     6     7 1   
    11     7     8 1   
    12     7    22 1   
    13     7    23 1   
    14     8     9 ar  
    15     8    13 ar  
    16     9    10 ar  
    17     9    24 1   
    18    10    11 ar  
    19    10    25 1   
    20    11    12 ar  
    21    11    26 1   
    22    12    13 ar  
    23    12    27 1   
    24    13    28 1   
    25    14    15 1   
    26    15    16 2   
    27    15    19 1   
    28    16    17 1   
    29    17    18 2   
    30    18    19 1   
    31    18    29 1   
    32    19    30 1   
@<TRIPOS>SUBSTRUCTURE
     1 LIG         1 TEMP              0 ****  ****    0 ROOT
