@<TRIPOS>MOLECULE
LIG
43 45 1 0 1
SMALL
USER_CHARGES
@<TRIPOS>CRYSIN
   82.2497    76.3258    89.7745    90.0000    90.0000    90.0000  1  1
@<TRIPOS>ATOM
       1 C5          45.0489    32.8141    57.1752 ca            1 LIG       -0.206000
       2 C6          40.7406    30.6581    54.1637 c             1 LIG        0.705700
       3 C7          43.9443    32.2567    56.4720 ca            1 LIG        0.145900
       4 C8          37.0190    32.0333    56.6937 ca            1 LIG        0.924900
       5 C9          35.1253    30.4864    56.7110 c3            1 LIG        0.186500
       6 C10         39.5662    32.5156    56.0052 ca            1 LIG       -0.422400
       7 C11         40.9750    32.7109    55.6919 cc            1 LIG        0.006800
       8 C12         45.8547    33.7748    56.4973 ca            1 LIG        0.150900
       9 C13         45.6834    33.9603    55.1110 ca            1 LIG       -0.175000
      10 C14         44.6290    33.2931    54.4388 ca            1 LIG       -0.076000
      11 C15         38.8208    31.4628    55.4872 ca            1 LIG        0.621200
      12 C16         38.8940    33.3007    56.9051 ca            1 LIG        0.522200
      13 C17         41.4953    31.7056    54.8272 cd            1 LIG       -0.052100
      14 C18         43.7159    32.4776    55.1132 ca            1 LIG        0.030100
      15 C19         38.5538    29.4712    54.0262 c3            1 LIG        0.071300
      16 F1          43.1918    31.4888    57.2887 f             1 LIG       -0.130900
      17 O2          42.7687    31.8493    54.3833 os            1 LIG       -0.223200
      18 N1          37.5690    33.0858    57.2160 nb            1 LIG       -0.759000
      19 O3          41.1787    29.9119    53.2679 o             1 LIG       -0.620500
      20 N2          39.4376    30.5596    54.5726 n             1 LIG       -0.423300
      21 N3          37.6138    31.1876    55.8826 nb            1 LIG       -0.815000
      22 N4          35.8024    31.6685    57.1649 nu            1 LIG       -0.830900
      23 H9          45.2747    32.5313    58.1991 ha            1 LIG        0.166000
      24 CN1         35.8336    29.1424    56.9894 c3            1 LIG        0.111900
      25 H11         41.5719    33.5198    56.0972 ha            1 LIG        0.164000
      26 H12         46.2576    34.7686    54.6679 ha            1 LIG        0.158000
      27 H13         44.5403    33.5450    53.3862 ha            1 LIG        0.185000
      28 H14         39.3396    34.1581    57.4074 h4            1 LIG        0.035100
      29 H17         38.0064    28.8663    54.7597 h1            1 LIG        0.063033
      30 H16         37.8963    29.9454    53.2872 h1            1 LIG        0.063033
      31 H15         39.1518    28.7714    53.4295 h1            1 LIG        0.063033
      32 H18         35.4382    32.1077    58.0008 hn            1 LIG        0.459800
      33 F2          46.8226    34.4288    57.1618 f             1 LIG       -0.133900
      34 CN2         33.6049    30.4729    57.1529 c3            1 LIG        0.111900
      35 ON1         33.4818    30.7753    58.5005 oh            1 LIG       -0.608300
      36 HN1         33.8499    31.6719    58.5865 ho            1 LIG        0.412500
      37 HN2         32.9500    31.1768    56.6247 h1            1 LIG        0.055200
      38 HN3         33.2163    29.4675    56.9490 h1            1 LIG        0.055200
      39 ON2         35.2294    28.1273    56.0956 oh            1 LIG       -0.608300
      40 HN4         36.9203    29.1894    56.8467 h1            1 LIG        0.055200
      41 HN5         35.6601    28.9599    58.0571 h1            1 LIG        0.055200
      42 HN6         34.6334    27.6878    56.7267 ho            1 LIG        0.412500
      43 H10         35.1446    30.5087    55.6144 h1            1 LIG        0.090700
@<TRIPOS>BOND
       1       34       35 1
       2       24       39 1
       3       15       20 1
       4       14       17 1
       5       13       17 1
       6       12       18 1
       7       11       20 1
       8       11       21 1
       9       10       14 1
      10        9       10 1
      11        8        9 1
      12        8       33 1
      13        7       13 1
      14        6        7 1
      15        6       11 1
      16        6       12 1
      17        5       22 1
      18        5       24 1
      19        5       34 1
      20        4       18 1
      21        4       21 1
      22        4       22 1
      23        3       14 1
      24        3       16 1
      25        2       13 1
      26        2       19 1
      27        2       20 1
      28        1        3 1
      29        1        8 1
      30       39       42 1
      31       35       36 1
      32       34       37 1
      33       34       38 1
      34       24       40 1
      35       24       41 1
      36       22       32 1
      37       15       29 1
      38       15       30 1
      39       15       31 1
      40       12       28 1
      41       10       27 1
      42        9       26 1
      43        7       25 1
      44        5       43 1
      45        1       23 1
@<TRIPOS>SUBSTRUCTURE
       1 LIG             1 RESIDUE    0 **** ROOT      0
