@<TRIPOS>MOLECULE
LIG
43 45 1 0 1
SMALL
USER_CHARGES
@<TRIPOS>CRYSIN
   39.8650    39.8650    39.8650   109.4712   109.4712   109.4712  1  1
@<TRIPOS>ATOM
       1 C1          11.5992     2.0665   -10.3436 ca            1 LIG       -0.206000
       2 C2           6.9128     2.8409   -13.5753 c             1 LIG        0.705700
       3 C3          10.5081     2.1529   -11.3422 ca            1 LIG        0.145900
       4 C4           3.1958     3.5596   -10.6708 ca            1 LIG        0.924900
       5 C5           0.9563     2.4903   -11.1468 c3            1 LIG        0.186500
       6 C6           5.7046     3.9910   -11.2341 ca            1 LIG       -0.422400
       7 C7           7.2065     3.9989   -11.3759 cc            1 LIG        0.006800
       8 C8          11.9984     3.2982    -9.6389 ca            1 LIG        0.150900
       9 C9          11.4911     4.5148   -10.0599 ca            1 LIG       -0.175000
      10 C10         10.4671     4.5135   -11.0497 ca            1 LIG       -0.076000
      11 C11          4.9509     3.2896   -12.1497 ca            1 LIG        0.621200
      12 C12          5.1417     4.3972   -10.0528 ca            1 LIG        0.522200
      13 C13          7.7067     3.3869   -12.5149 cd            1 LIG       -0.052100
      14 C14          9.9938     3.3740   -11.7388 ca            1 LIG        0.030100
      15 C15          4.6895     2.0080   -14.2896 c3            1 LIG        0.071300
      16 F1          10.0336     1.0480   -11.8998 f             1 LIG       -0.130900
      17 O1           9.1151     3.5005   -12.7442 os            1 LIG       -0.223200
      18 N1           3.8347     4.2746    -9.7731 nb            1 LIG       -0.759000
      19 O2           7.4000     2.3505   -14.6120 o             1 LIG       -0.620500
      20 N2           5.5100     2.7139   -13.3046 n             1 LIG       -0.423300
      21 N3           3.6665     3.0478   -11.8315 nb            1 LIG       -0.815000
      22 N4           1.8783     3.3709   -10.4222 nu            1 LIG       -0.830900
      23 H1          12.0809     1.1242   -10.0998 ha            1 LIG        0.166000
      24 C16          0.0121     1.8504   -10.1729 c3            1 LIG        0.111900
      25 H2           7.8520     4.5643   -10.7135 ha            1 LIG        0.164000
      26 H3          11.8147     5.4591    -9.6323 ha            1 LIG        0.158000
      27 H4          10.2268     5.4952   -11.4471 ha            1 LIG        0.185000
      28 H5           5.7135     4.8658    -9.2532 h4            1 LIG        0.035100
      29 H6           5.2714     1.2278   -14.7956 h1            1 LIG        0.063033
      30 H7           3.7614     1.6577   -13.8212 h1            1 LIG        0.063033
      31 H8           4.4909     2.7230   -15.0975 h1            1 LIG        0.063033
      32 H9           1.6602     3.8550    -9.5607 hn            1 LIG        0.459800
      33 F2          13.0070     3.2244    -8.7470 f             1 LIG       -0.133900
      34 C17          0.2753     3.4008   -12.2039 c3            1 LIG        0.111900
      35 O3           1.1395     4.2932   -12.8736 oh            1 LIG       -0.608300
      36 H10          2.0268     4.0246   -12.5782 ho            1 LIG        0.412500
      37 H11         -0.1969     2.7432   -12.9441 h1            1 LIG        0.055200
      38 H12         -0.5286     4.0051   -11.7657 h1            1 LIG        0.055200
      39 O4          -0.8281     2.8109    -9.6118 oh            1 LIG       -0.608300
      40 H13         -0.4924     1.0207   -10.6835 h1            1 LIG        0.055200
      41 H14          0.6462     1.4314    -9.3819 h1            1 LIG        0.055200
      42 H15         -0.2960     3.4553    -9.1134 ho            1 LIG        0.412500
      43 H16          1.3918     1.6612   -11.7181 h1            1 LIG        0.090700
@<TRIPOS>BOND
       1       34       35 1
       2       24       39 1
       3       15       20 1
       4       14       17 1
       5       13       17 1
       6       12       18 1
       7       11       20 1
       8       11       21 1
       9       10       14 1
      10        9       10 1
      11        8        9 1
      12        8       33 1
      13        7       13 1
      14        6        7 1
      15        6       11 1
      16        6       12 1
      17        5       22 1
      18        5       24 1
      19        5       34 1
      20        4       18 1
      21        4       21 1
      22        4       22 1
      23        3       14 1
      24        3       16 1
      25        2       13 1
      26        2       19 1
      27        2       20 1
      28        1        3 1
      29        1        8 1
      30       39       42 1
      31       35       36 1
      32       34       37 1
      33       34       38 1
      34       24       40 1
      35       24       41 1
      36       22       32 1
      37       15       29 1
      38       15       30 1
      39       15       31 1
      40       12       28 1
      41       10       27 1
      42        9       26 1
      43        7       25 1
      44        5       43 1
      45        1       23 1
@<TRIPOS>SUBSTRUCTURE
       1 LIG             1 RESIDUE    0 **** ROOT      0
