@<TRIPOS>MOLECULE
LIG
44 46 1 0 1
SMALL
USER_CHARGES
@<TRIPOS>CRYSIN
   41.4258    41.4258    41.4258   109.4712   109.4712   109.4712  1  1
@<TRIPOS>ATOM
       1 C1          13.8971     5.2601   -13.5206 ca            1 LIG       -0.207000
       2 C2           8.1824     4.5698   -12.0859 c             1 LIG        0.704700
       3 C3          12.7156     4.5366   -13.5415 ca            1 LIG        0.145900
       4 C4           7.2485     2.1970    -8.1162 ca            1 LIG        0.922900
       5 C5           5.0049     2.1849    -7.0599 c3            1 LIG        0.243800
       6 C6           9.1085     2.8904    -9.9395 ca            1 LIG       -0.418400
       7 C7          10.0462     3.2149   -10.9911 cc            1 LIG        0.002800
       8 C8          14.0428     6.3188   -12.6679 ca            1 LIG        0.150900
       9 C9          13.0778     6.7040   -11.7907 ca            1 LIG       -0.175000
      10 C10         11.7965     6.1090   -11.9085 ca            1 LIG       -0.075000
      11 C11          7.8181     3.4559    -9.9228 ca            1 LIG        0.622200
      12 C12          9.4115     2.1309    -8.8419 ca            1 LIG        0.522200
      13 C13          9.5418     3.9691   -12.0416 cd            1 LIG       -0.049100
      14 C14         11.5792     5.0296   -12.8544 ca            1 LIG        0.031100
      15 C15          5.9337     4.6105   -11.0927 c3            1 LIG        0.068300
      16 F1          12.6166     3.4550   -14.3868 f             1 LIG       -0.130900
      17 O1          10.4199     4.2839   -13.1275 os            1 LIG       -0.223200
      18 N1           8.4791     1.7814    -7.8743 nb            1 LIG       -0.763000
      19 O2           7.8344     5.1893   -13.0360 o             1 LIG       -0.617500
      20 N2           7.3782     4.3027   -10.9897 n             1 LIG       -0.421300
      21 N3           6.8554     3.0443    -9.0980 nb            1 LIG       -0.802000
      22 N4           6.4042     1.8360    -7.1533 nu            1 LIG       -0.838900
      23 H1          14.7525     4.8044   -14.0106 ha            1 LIG        0.166000
      24 H2           4.9248     3.2621    -7.2513 h1            1 LIG        0.075200
      25 H3          11.0882     2.9179   -11.0231 ha            1 LIG        0.164000
      26 H4          13.1868     7.3871   -10.9534 ha            1 LIG        0.159000
      27 H5          11.1107     6.3424   -11.0995 ha            1 LIG        0.186000
      28 H6          10.3944     1.6833    -8.7027 h4            1 LIG        0.035100
      29 H7           5.2396     3.8155   -10.7932 h1            1 LIG        0.066367
      30 H8           5.6641     5.4362   -10.4228 h1            1 LIG        0.066367
      31 H9           5.6908     4.9152   -12.1182 h1            1 LIG        0.066367
      32 H10          6.8539     1.6690    -6.2622 hn            1 LIG        0.446800
      33 F2          15.2661     6.8768   -12.5460 f             1 LIG       -0.133900
      34 C16          4.1147     1.3478    -8.0849 c3            1 LIG       -0.337600
      35 H11          4.6613     2.0846    -6.0230 h1            1 LIG        0.075200
      36 H12          4.6601     1.4453    -9.0317 h1            1 LIG        0.114200
      37 H13          4.0470     0.2850    -7.8215 h1            1 LIG        0.114200
      38 C17          2.5861     3.5064    -8.9162 c3            1 LIG       -0.375300
      39 S1           2.4370     1.9031    -8.2077 s6            1 LIG        1.348000
      40 O3           1.7554     1.0881    -9.2334 o             1 LIG       -0.645800
      41 O4           1.8453     2.0375    -6.8643 o             1 LIG       -0.645800
      42 H14          1.5675     3.8508    -8.6987 h1            1 LIG        0.121367
      43 H15          3.3721     4.0993    -8.4322 h1            1 LIG        0.121367
      44 H16          2.8060     3.2660    -9.9637 h1            1 LIG        0.121367
@<TRIPOS>BOND
       1       39       40 1
       2       39       41 1
       3       38       39 1
       4       34       39 1
       5       15       20 1
       6       14       17 1
       7       13       17 1
       8       12       18 1
       9       11       20 1
      10       11       21 1
      11       10       14 1
      12        9       10 1
      13        8        9 1
      14        8       33 1
      15        7       13 1
      16        6        7 1
      17        6       11 1
      18        6       12 1
      19        5       22 1
      20        5       34 1
      21        4       18 1
      22        4       21 1
      23        4       22 1
      24        3       14 1
      25        3       16 1
      26        2       13 1
      27        2       19 1
      28        2       20 1
      29        1        3 1
      30        1        8 1
      31       38       42 1
      32       38       43 1
      33       38       44 1
      34       34       36 1
      35       34       37 1
      36       22       32 1
      37       15       29 1
      38       15       30 1
      39       15       31 1
      40       12       28 1
      41       10       27 1
      42        9       26 1
      43        7       25 1
      44        5       24 1
      45        5       35 1
      46        1       23 1
@<TRIPOS>SUBSTRUCTURE
       1 LIG             1 RESIDUE    0 **** ROOT      0
