@<TRIPOS>MOLECULE
LIG
45 48 1 0 1
SMALL
USER_CHARGES
@<TRIPOS>CRYSIN
   39.9517    39.9517    39.9517   109.4712   109.4712   109.4712  1  1
@<TRIPOS>ATOM
       1 C1           5.1567     0.3002   -22.8836 c3            1 LIG       -0.131900
       2 C2           4.4215    -0.9274   -23.3914 c3            1 LIG        0.127900
       3 C3           2.2819    -0.1156   -22.5389 c3            1 LIG        0.127900
       4 C4           2.9528     1.0609   -21.8831 c3            1 LIG       -0.131900
       5 O1           3.0645    -0.5032   -23.6688 os            1 LIG       -0.413600
       6 C5           8.6783     0.7856   -16.6706 c             1 LIG        0.712700
       7 C6           5.8599     2.3315   -20.0996 ca            1 LIG        0.918900
       8 C7           4.4475     0.8367   -21.6261 c3            1 LIG        0.218500
       9 C8           7.5665     2.9085   -18.0792 ca            1 LIG       -0.422400
      10 C9           8.4842     3.2748   -16.9899 cc            1 LIG        0.023800
      11 C10          7.2656     1.6640   -18.4176 ca            1 LIG        0.620200
      12 C11          6.7807     3.8514   -18.6724 ca            1 LIG        0.520200
      13 C12          8.0072    -0.7995   -18.3821 c3            1 LIG        0.070300
      14 N1           6.0902     3.5902   -19.7937 nb            1 LIG       -0.765000
      15 O2           9.0138    -0.1325   -15.9947 o             1 LIG       -0.619500
      16 N2           7.9068     0.5979   -17.7759 n             1 LIG       -0.424300
      17 N3           6.4218     1.3251   -19.4149 nb            1 LIG       -0.806000
      18 N4           5.0873     2.0766   -21.2281 nu            1 LIG       -0.824900
      19 H1           6.2051     0.0663   -22.6610 hc            1 LIG        0.060450
      20 H2           5.2517     1.0617   -23.6675 hc            1 LIG        0.060450
      21 H3           4.9215    -1.3694   -24.2620 h1            1 LIG        0.052200
      22 H4           4.4589    -1.7060   -22.6195 h1            1 LIG        0.052200
      23 H5           2.1627    -0.9789   -21.8726 h1            1 LIG        0.052200
      24 H6           1.2835     0.1657   -22.8957 h1            1 LIG        0.052200
      25 H7           2.8378     1.8228   -22.6639 hc            1 LIG        0.060450
      26 H8           2.4630     1.3443   -20.9433 hc            1 LIG        0.060450
      27 H9           4.6390     0.0770   -20.8582 h1            1 LIG        0.085700
      28 H10          8.7618     4.2816   -16.6993 ha            1 LIG        0.151000
      29 H11          6.7797     4.8915   -18.3497 h4            1 LIG        0.033100
      30 H12          9.0341    -1.1841   -18.3502 h1            1 LIG        0.062367
      31 H13          7.4635    -1.4640   -17.6993 h1            1 LIG        0.062367
      32 H14          7.5345    -0.6868   -19.3656 h1            1 LIG        0.062367
      33 H15          4.7013     2.9331   -21.6045 hn            1 LIG        0.438800
      34 C13          8.9645     2.1745   -16.2345 cd            1 LIG       -0.155400
      35 C14         10.8405     3.4869   -12.5527 ca            1 LIG       -0.116000
      36 C15          9.6353     2.8132   -12.4775 ca            1 LIG       -0.130000
      37 C16          9.0304     2.3478   -13.7110 ca            1 LIG        0.028400
      38 C17          9.6640     2.6349   -14.9384 ca            1 LIG       -0.029800
      39 C18         10.8371     3.4138   -14.9152 ca            1 LIG       -0.088000
      40 C19         11.4877     3.8590   -13.7262 ca            1 LIG       -0.130000
      41 H16         11.3039     3.8216   -11.6293 ha            1 LIG        0.137000
      42 H17          9.1561     2.6487   -11.5169 ha            1 LIG        0.146000
      43 Cl1          7.3954     1.6736   -13.6976 cl            1 LIG       -0.100400
      44 H18         11.3177     3.4977   -15.8854 ha            1 LIG        0.151000
      45 H19         12.4554     4.3459   -13.8024 ha            1 LIG        0.138000
@<TRIPOS>BOND
       1       39       40 1
       2       38       39 1
       3       37       38 1
       4       37       43 1
       5       36       37 1
       6       35       36 1
       7       35       40 1
       8       34       38 1
       9       13       16 1
      10       12       14 1
      11       11       16 1
      12       11       17 1
      13       10       34 1
      14        9       10 1
      15        9       11 1
      16        9       12 1
      17        8       18 1
      18        7       14 1
      19        7       17 1
      20        7       18 1
      21        6       15 1
      22        6       16 1
      23        6       34 1
      24        4        8 1
      25        3        4 1
      26        3        5 1
      27        2        5 1
      28        1        2 1
      29        1        8 1
      30       40       45 1
      31       39       44 1
      32       36       42 1
      33       35       41 1
      34       18       33 1
      35       13       30 1
      36       13       31 1
      37       13       32 1
      38       12       29 1
      39       10       28 1
      40        8       27 1
      41        4       25 1
      42        4       26 1
      43        3       23 1
      44        3       24 1
      45        2       21 1
      46        2       22 1
      47        1       19 1
      48        1       20 1
@<TRIPOS>SUBSTRUCTURE
       1 LIG             1 RESIDUE    0 **** ROOT      0
