@<TRIPOS>MOLECULE
LIG
46 49 1 0 1
SMALL
USER_CHARGES
@<TRIPOS>CRYSIN
   40.4136    40.4136    40.4136   109.4712   109.4712   109.4712  1  1
@<TRIPOS>ATOM
       1 C1          -4.2224   -15.2494    16.6689 c3            1 LIG       -0.131400
       2 C2          -4.9223   -16.5905    16.7927 c3            1 LIG        0.127900
       3 C3          -5.6600   -16.5172    14.4816 c3            1 LIG        0.127900
       4 C4          -4.9735   -15.1595    14.2268 c3            1 LIG       -0.131400
       5 C5          -2.9516    -4.2515    15.7300 ca            1 LIG       -0.138000
       6 O1          -4.9859   -17.2741    15.5040 os            1 LIG       -0.412600
       7 C6          -4.3485    -8.0909    12.7375 c             1 LIG        0.698700
       8 C7          -3.4622    -5.1356    14.7495 ca            1 LIG       -0.136500
       9 C8          -4.5976   -12.0439    15.1657 ca            1 LIG        0.922900
      10 C9          -4.9411   -14.3749    15.5712 c3            1 LIG        0.219500
      11 C10         -5.3850    -9.5143    14.9319 ca            1 LIG       -0.424400
      12 C11         -5.7130    -8.1159    14.8964 cc            1 LIG       -0.000200
      13 C12         -3.8100    -3.2489    16.2175 ca            1 LIG        0.097900
      14 C13         -5.1752    -3.2577    15.9847 ca            1 LIG       -0.138000
      15 C14         -5.6975    -4.3291    15.2124 ca            1 LIG       -0.136500
      16 C15         -4.5400   -10.1447    13.9923 ca            1 LIG        0.622200
      17 C16         -5.7671   -10.2788    16.0430 ca            1 LIG        0.521200
      18 C17         -5.2231    -7.4197    13.7870 cd            1 LIG       -0.048100
      19 C18         -4.8761    -5.2836    14.5332 ca            1 LIG        0.105100
      20 C19         -3.0479    -9.9978    11.9754 c3            1 LIG        0.070300
      21 H1          -2.8076    -5.8235    14.2227 ha            1 LIG        0.151500
      22 F1          -3.3266    -2.3219    16.9915 f             1 LIG       -0.142900
      23 O2          -5.4806    -6.1105    13.6040 os            1 LIG       -0.225200
      24 N1          -5.3401   -11.5481    16.1658 nb            1 LIG       -0.763000
      25 O3          -3.7799    -7.4414    11.8713 o             1 LIG       -0.595500
      26 N2          -4.0727    -9.4417    12.8586 n             1 LIG       -0.425300
      27 N3          -4.2265   -11.4574    14.0766 nb            1 LIG       -0.806000
      28 N4          -4.0814   -13.2696    15.2687 nu            1 LIG       -0.825900
      29 H2          -4.3124   -14.9428    17.7183 hc            1 LIG        0.060700
      30 H3          -3.1456   -15.4296    16.5622 hc            1 LIG        0.060700
      31 H4          -4.3359   -17.1412    17.5385 h1            1 LIG        0.052950
      32 H5          -5.9489   -16.3653    17.1071 h1            1 LIG        0.052950
      33 H6          -6.6937   -16.3176    14.7899 h1            1 LIG        0.052950
      34 H7          -5.5745   -17.0537    13.5286 h1            1 LIG        0.052950
      35 H8          -3.9443   -15.3250    13.8849 hc            1 LIG        0.060700
      36 H9          -5.5253   -14.6556    13.4237 hc            1 LIG        0.060700
      37 H10         -1.8861    -4.1315    15.9019 ha            1 LIG        0.151000
      38 H11         -5.9245   -14.0976    15.9706 h1            1 LIG        0.085700
      39 H12         -6.1758    -7.5081    15.6655 ha            1 LIG        0.158000
      40 H13         -5.8555    -2.5440    16.4400 ha            1 LIG        0.151000
      41 H14         -6.7752    -4.4421    15.1407 ha            1 LIG        0.151500
      42 H15         -6.4212    -9.8952    16.8246 h4            1 LIG        0.033100
      43 H16         -3.0779   -11.0927    11.9154 h1            1 LIG        0.063700
      44 H17         -3.3025    -9.7170    10.9460 h1            1 LIG        0.063700
      45 H18         -2.0574    -9.5798    12.1937 h1            1 LIG        0.063700
      46 H19         -3.6033   -13.2913    14.3770 hn            1 LIG        0.441800
@<TRIPOS>BOND
       1       20       26 1
       2       19       23 1
       3       18       23 1
       4       17       24 1
       5       16       26 1
       6       16       27 1
       7       15       19 1
       8       14       15 1
       9       13       14 1
      10       13       22 1
      11       12       18 1
      12       11       12 1
      13       11       16 1
      14       11       17 1
      15       10       28 1
      16        9       24 1
      17        9       27 1
      18        9       28 1
      19        8       19 1
      20        7       18 1
      21        7       25 1
      22        7       26 1
      23        5        8 1
      24        5       13 1
      25        4       10 1
      26        3        4 1
      27        3        6 1
      28        2        6 1
      29        1        2 1
      30        1       10 1
      31       28       46 1
      32       20       43 1
      33       20       44 1
      34       20       45 1
      35       17       42 1
      36       15       41 1
      37       14       40 1
      38       12       39 1
      39       10       38 1
      40        8       21 1
      41        5       37 1
      42        4       35 1
      43        4       36 1
      44        3       33 1
      45        3       34 1
      46        2       31 1
      47        2       32 1
      48        1       29 1
      49        1       30 1
@<TRIPOS>SUBSTRUCTURE
       1 LIG             1 RESIDUE    0 **** ROOT      0
