@<TRIPOS>MOLECULE
LIG
52 55 1 0 1
SMALL
USER_CHARGES
@<TRIPOS>CRYSIN
   42.1216    42.1216    42.1216   109.4712   109.4712   109.4712  1  1
@<TRIPOS>ATOM
       1 C1           5.8770     7.8921    -8.1872 ca            1 LIG       -0.206000
       2 C2           8.6863     2.7611    -8.1291 c             1 LIG        0.704700
       3 C3           6.4218     6.8508    -7.5095 ca            1 LIG        0.145900
       4 C4           6.1214    -0.1005   -10.7534 ca            1 LIG        0.920900
       5 C5           6.1868     2.1765    -9.4098 ca            1 LIG       -0.418400
       6 C6           6.3117     3.3711    -8.6089 cc            1 LIG        0.004800
       7 C7           6.2009     8.0428    -9.4954 ca            1 LIG        0.150900
       8 C8           7.1278     7.2128   -10.1494 ca            1 LIG       -0.175000
       9 C9           7.6702     6.1345    -9.4409 ca            1 LIG       -0.075000
      10 C10          7.2983     1.2737    -9.4453 ca            1 LIG        0.620200
      11 C11          5.0733     1.8009   -10.1155 ca            1 LIG        0.521200
      12 C12          7.5330     3.6665    -8.0570 cd            1 LIG       -0.050100
      13 C13          7.3154     5.9797    -8.0885 ca            1 LIG        0.030100
      14 C14          9.8249     0.7892    -9.0682 c3            1 LIG        0.070300
      15 F1           6.1235     6.7532    -6.1978 f             1 LIG       -0.130900
      16 O1           7.7000     4.8461    -7.4406 os            1 LIG       -0.223200
      17 N1           4.9963     0.6046   -10.8067 nb            1 LIG       -0.762000
      18 O2           9.7813     3.1570    -7.7572 o             1 LIG       -0.619500
      19 N2           8.5191     1.5441    -8.7828 n             1 LIG       -0.422300
      20 N3           7.2338     0.1901   -10.0985 nb            1 LIG       -0.805000
      21 N4           6.1546    -1.2248   -11.4522 nu            1 LIG       -0.825900
      22 H1           5.3169     8.6297    -7.6200 ha            1 LIG        0.166000
      23 H2           5.5258     4.0725    -8.3533 ha            1 LIG        0.164000
      24 H3           7.2809     7.2716   -11.2229 ha            1 LIG        0.158000
      25 H4           8.4370     5.4423    -9.7759 ha            1 LIG        0.186000
      26 H5           4.2463     2.5070   -10.1734 h4            1 LIG        0.035100
      27 H6           9.6082    -0.2245    -9.4273 h1            1 LIG        0.064033
      28 H7          10.3623     1.3039    -9.8743 h1            1 LIG        0.064033
      29 H8          10.4800     0.7347    -8.1900 h1            1 LIG        0.064033
      30 H9           5.3898    -1.3296   -12.1066 hn            1 LIG        0.438800
      31 F2           5.6572     9.0193   -10.2804 f             1 LIG       -0.133900
      32 C15          8.8094    -3.2874   -13.5960 c3            1 LIG        0.085000
      33 C16          7.8883    -2.1472   -13.1518 c3            1 LIG       -0.122900
      34 C17          7.3928    -2.1368   -11.6558 c3            1 LIG        0.217500
      35 C18          6.9182    -3.6096   -11.2385 c3            1 LIG       -0.122900
      36 C19          7.9429    -4.6877   -11.6637 c3            1 LIG        0.085000
      37 N5           8.3137    -4.5559   -13.1031 n             1 LIG       -0.465800
      38 H10          9.7458    -3.0658   -13.0692 h1            1 LIG        0.062950
      39 H11          8.8912    -3.1279   -14.6783 h1            1 LIG        0.062950
      40 H12          6.9926    -2.0954   -13.7830 hc            1 LIG        0.059200
      41 H13          8.4168    -1.2104   -13.3672 hc            1 LIG        0.059200
      42 H14          8.1867    -1.7802   -10.9880 h1            1 LIG        0.086700
      43 H15          6.7313    -3.5050   -10.1626 hc            1 LIG        0.059200
      44 H16          5.9723    -3.8019   -11.7597 hc            1 LIG        0.059200
      45 H17          8.8812    -4.5655   -11.1085 h1            1 LIG        0.062950
      46 H18          7.5535    -5.6786   -11.3995 h1            1 LIG        0.062950
      47 C20          8.2489    -5.7394   -13.9265 c             1 LIG        0.654100
      48 O3           7.7900    -6.7916   -13.5359 o             1 LIG       -0.601100
      49 C21          8.6684    -5.6712   -15.3241 c3            1 LIG       -0.170100
      50 H19          9.7030    -5.3104   -15.3778 hc            1 LIG        0.066367
      51 H20          8.6810    -6.6646   -15.7891 hc            1 LIG        0.066367
      52 H21          8.0817    -4.9519   -15.9088 hc            1 LIG        0.066367
@<TRIPOS>BOND
       1       47       48 1
       2       47       49 1
       3       37       47 1
       4       36       37 1
       5       35       36 1
       6       34       35 1
       7       33       34 1
       8       32       33 1
       9       32       37 1
      10       21       34 1
      11       14       19 1
      12       13       16 1
      13       12       16 1
      14       11       17 1
      15       10       19 1
      16       10       20 1
      17        9       13 1
      18        8        9 1
      19        7        8 1
      20        7       31 1
      21        6       12 1
      22        5        6 1
      23        5       10 1
      24        5       11 1
      25        4       17 1
      26        4       20 1
      27        4       21 1
      28        3       13 1
      29        3       15 1
      30        2       12 1
      31        2       18 1
      32        2       19 1
      33        1        3 1
      34        1        7 1
      35       49       50 1
      36       49       51 1
      37       49       52 1
      38       36       45 1
      39       36       46 1
      40       35       43 1
      41       35       44 1
      42       34       42 1
      43       33       40 1
      44       33       41 1
      45       32       38 1
      46       32       39 1
      47       21       30 1
      48       14       27 1
      49       14       28 1
      50       14       29 1
      51       11       26 1
      52        9       25 1
      53        8       24 1
      54        6       23 1
      55        1       22 1
@<TRIPOS>SUBSTRUCTURE
       1 LIG             1 RESIDUE    0 **** ROOT      0
