@<TRIPOS>MOLECULE
LIG
46 49 1 0 1
SMALL
USER_CHARGES
@<TRIPOS>CRYSIN
   40.3772    40.3772    40.3772   109.4712   109.4712   109.4712  1  1
@<TRIPOS>ATOM
       1 C1          -0.0498     8.0915   -11.9379 c3            1 LIG       -0.131900
       2 C2          -0.3757     6.7620   -11.3570 c3            1 LIG        0.127900
       3 C3          -1.5750     7.7816    -9.4667 c3            1 LIG        0.127900
       4 C4          -1.2816     9.2322    -9.9282 c3            1 LIG       -0.131900
       5 C5          10.3153    12.3307   -13.8453 ca            1 LIG        0.155900
       6 O1          -1.6875     6.9465   -10.6974 os            1 LIG       -0.412600
       7 C6           6.0011    11.5439   -10.7319 c             1 LIG        0.699700
       8 C7           9.3124    13.0152   -13.1469 ca            1 LIG       -0.225000
       9 C8           1.5401    10.8693   -11.7624 ca            1 LIG        0.923900
      10 C9          -0.0342     9.1790   -10.7736 c3            1 LIG        0.220500
      11 C10          3.7193    12.1536   -12.3416 ca            1 LIG       -0.425400
      12 C11          4.9874    12.8302   -12.7121 cc            1 LIG        0.003800
      13 C12         10.0961    11.0446   -14.3177 ca            1 LIG       -0.194000
      14 C13          8.9633    10.3950   -13.8689 ca            1 LIG       -0.080000
      15 C14          7.9476    11.0464   -13.2170 ca            1 LIG       -0.157000
      16 C15          3.7139    11.2604   -11.3343 ca            1 LIG        0.623200
      17 C16          2.5621    12.3275   -13.1059 ca            1 LIG        0.522200
      18 C17          6.0125    12.5836   -11.8300 cd            1 LIG       -0.051100
      19 C18          8.1226    12.3601   -12.7830 ca            1 LIG        0.146100
      20 C19          4.5441    10.5211    -9.0851 c3            1 LIG        0.070300
      21 H1           9.3446    14.0891   -12.9885 ha            1 LIG        0.156000
      22 O2           7.2504    13.0802   -12.0103 os            1 LIG       -0.223200
      23 N1           1.4029    11.6908   -12.8003 nb            1 LIG       -0.763000
      24 O3           6.9986    11.3019    -9.9879 o             1 LIG       -0.595500
      25 N2           4.8002    10.9219   -10.5488 n             1 LIG       -0.425300
      26 N3           2.6119    10.5140   -11.0977 nb            1 LIG       -0.807000
      27 N4           0.3359    10.5420   -11.2909 nu            1 LIG       -0.825900
      28 H2           0.9539     7.9831   -12.3672 hc            1 LIG        0.060700
      29 H3          -0.7096     8.4732   -12.7267 hc            1 LIG        0.060700
      30 H4          -0.3975     5.9461   -12.0900 h1            1 LIG        0.052950
      31 H5           0.3549     6.4615   -10.5958 h1            1 LIG        0.052950
      32 H6          -0.7613     7.3609    -8.8630 h1            1 LIG        0.052950
      33 H7          -2.5068     7.6245    -8.9095 h1            1 LIG        0.052950
      34 H8          -2.1417     9.5290   -10.5411 hc            1 LIG        0.060700
      35 H9          -1.0916     9.9404    -9.1122 hc            1 LIG        0.060700
      36 F1          11.4858    12.8542   -14.0589 f             1 LIG       -0.139900
      37 H10          0.7609     8.7989   -10.1203 h1            1 LIG        0.085700
      38 H11          5.0369    13.4877   -13.5725 ha            1 LIG        0.158000
      39 H12          8.8860     9.3332   -14.0832 ha            1 LIG        0.141000
      40 H13          7.1204    10.4271   -12.8829 ha            1 LIG        0.156000
      41 H14          2.5628    12.8795   -14.0447 h4            1 LIG        0.033100
      42 H15          5.3855     9.9597    -8.6606 h1            1 LIG        0.064033
      43 H16          4.3608    11.4087    -8.4669 h1            1 LIG        0.064033
      44 H17          3.7246     9.7937    -9.0327 h1            1 LIG        0.064033
      45 H18         -0.4304    11.1421   -11.5678 hn            1 LIG        0.441800
      46 H19         10.9344    10.5153   -14.7609 ha            1 LIG        0.150000
@<TRIPOS>BOND
       1       20       25 1
       2       19       22 1
       3       18       22 1
       4       17       23 1
       5       16       25 1
       6       16       26 1
       7       15       19 1
       8       14       15 1
       9       13       14 1
      10       12       18 1
      11       11       12 1
      12       11       16 1
      13       11       17 1
      14       10       27 1
      15        9       23 1
      16        9       26 1
      17        9       27 1
      18        8       19 1
      19        7       18 1
      20        7       24 1
      21        7       25 1
      22        5        8 1
      23        5       13 1
      24        5       36 1
      25        4       10 1
      26        3        4 1
      27        3        6 1
      28        2        6 1
      29        1        2 1
      30        1       10 1
      31       27       45 1
      32       20       42 1
      33       20       43 1
      34       20       44 1
      35       17       41 1
      36       15       40 1
      37       14       39 1
      38       13       46 1
      39       12       38 1
      40       10       37 1
      41        8       21 1
      42        4       34 1
      43        4       35 1
      44        3       32 1
      45        3       33 1
      46        2       30 1
      47        2       31 1
      48        1       28 1
      49        1       29 1
@<TRIPOS>SUBSTRUCTURE
       1 LIG             1 RESIDUE    0 **** ROOT      0
