@<TRIPOS>MOLECULE
LIG
49 52 1 0 1
SMALL
USER_CHARGES
@<TRIPOS>CRYSIN
   40.9450    40.9450    40.9450   109.4712   109.4712   109.4712  1  1
@<TRIPOS>ATOM
       1 C1          10.5147     2.3750   -13.3222 ca            1 LIG       -0.206000
       2 C2           6.1711    -1.6215   -13.4348 c             1 LIG        0.704700
       3 C3          10.0959     1.0569   -13.0728 ca            1 LIG        0.145900
       4 C4           3.2792    -1.6308    -9.7229 ca            1 LIG        0.923900
       5 C5           5.5271    -0.9669   -10.7653 ca            1 LIG       -0.421400
       6 C6           6.8485    -0.6102   -11.2161 cc            1 LIG        0.005800
       7 C7           9.5896     3.2498   -13.9040 ca            1 LIG        0.150900
       8 C8           8.2255     2.8328   -14.1755 ca            1 LIG       -0.175000
       9 C9           7.7890     1.4888   -13.8660 ca            1 LIG       -0.076000
      10 C10          4.5779    -1.5314   -11.5435 ca            1 LIG        0.620200
      11 C11          5.1978    -0.5654    -9.5084 ca            1 LIG        0.522200
      12 C12          7.1495    -0.9725   -12.5292 cd            1 LIG       -0.052100
      13 C13          8.7081     0.6230   -13.2526 ca            1 LIG        0.031100
      14 C14          3.9023    -2.3650   -13.8254 c3            1 LIG        0.070300
      15 F1          10.9702     0.1706   -12.5532 f             1 LIG       -0.130900
      16 O1           8.3878    -0.6659   -13.0417 os            1 LIG       -0.223200
      17 N1           4.0478    -0.8331    -8.9473 nb            1 LIG       -0.764000
      18 O2           6.5028    -1.9282   -14.5919 o             1 LIG       -0.620500
      19 N2           4.9121    -1.8317   -12.9055 n             1 LIG       -0.422300
      20 N3           3.4620    -1.8940   -11.0163 nb            1 LIG       -0.806000
      21 N4           2.2178    -2.1218    -9.1221 nu            1 LIG       -0.827900
      22 H1          11.5589     2.6545   -13.2175 ha            1 LIG        0.166000
      23 H2           7.6132    -0.1881   -10.5742 ha            1 LIG        0.163000
      24 H3           7.5284     3.4886   -14.6887 ha            1 LIG        0.158000
      25 H4           6.7541     1.2545   -14.0970 ha            1 LIG        0.186000
      26 H5           5.9353    -0.0253    -8.9164 h4            1 LIG        0.034100
      27 H6           4.3572    -2.7248   -14.7566 h1            1 LIG        0.063700
      28 H7           3.3435    -3.1080   -13.2430 h1            1 LIG        0.063700
      29 H8           3.2305    -1.5101   -13.9711 h1            1 LIG        0.063700
      30 H9           2.1004    -1.8232    -8.1623 hn            1 LIG        0.440800
      31 F2           9.9602     4.5107   -14.2490 f             1 LIG       -0.133900
      32 C15         -1.1874    -1.7749   -10.8226 c3            1 LIG       -0.093400
      33 C16          0.1803    -1.3462   -10.1358 c3            1 LIG       -0.093400
      34 C17          1.0374    -2.5679    -9.8969 c3            1 LIG        0.217500
      35 C18          0.2342    -3.5460    -9.0034 c3            1 LIG       -0.093400
      36 C19         -1.2011    -3.9854    -9.5269 c3            1 LIG       -0.093400
      37 C20         -2.0757    -2.7351   -10.0019 c3            1 LIG        0.139100
      38 H10         -1.1652    -2.2126   -11.8283 hc            1 LIG        0.056950
      39 H11         -1.7844    -0.8869   -11.0646 hc            1 LIG        0.056950
      40 H12          0.1431    -0.8046    -9.1825 hc            1 LIG        0.051450
      41 H13          0.6770    -0.6804   -10.8523 hc            1 LIG        0.051450
      42 H14          1.2477    -3.0842   -10.8416 h1            1 LIG        0.088700
      43 H15          0.7233    -4.4497    -8.6194 hc            1 LIG        0.051450
      44 H16          0.0573    -3.0503    -8.0409 hc            1 LIG        0.051450
      45 H17         -0.9851    -4.5609   -10.4354 hc            1 LIG        0.056950
      46 H18         -1.6946    -4.6921    -8.8484 hc            1 LIG        0.056950
      47 H19         -2.4374    -2.2189    -9.1041 h1            1 LIG        0.032700
      48 O3          -3.2322    -3.1796   -10.7137 oh            1 LIG       -0.597800
      49 H20         -3.7861    -3.3844    -9.9404 ho            1 LIG        0.401000
@<TRIPOS>BOND
       1       37       48 1
       2       36       37 1
       3       35       36 1
       4       34       35 1
       5       33       34 1
       6       32       33 1
       7       32       37 1
       8       21       34 1
       9       14       19 1
      10       13       16 1
      11       12       16 1
      12       11       17 1
      13       10       19 1
      14       10       20 1
      15        9       13 1
      16        8        9 1
      17        7        8 1
      18        7       31 1
      19        6       12 1
      20        5        6 1
      21        5       10 1
      22        5       11 1
      23        4       17 1
      24        4       20 1
      25        4       21 1
      26        3       13 1
      27        3       15 1
      28        2       12 1
      29        2       18 1
      30        2       19 1
      31        1        3 1
      32        1        7 1
      33       48       49 1
      34       37       47 1
      35       36       45 1
      36       36       46 1
      37       35       43 1
      38       35       44 1
      39       34       42 1
      40       33       40 1
      41       33       41 1
      42       32       38 1
      43       32       39 1
      44       21       30 1
      45       14       27 1
      46       14       28 1
      47       14       29 1
      48       11       26 1
      49        9       25 1
      50        8       24 1
      51        6       23 1
      52        1       22 1
@<TRIPOS>SUBSTRUCTURE
       1 LIG             1 RESIDUE    0 **** ROOT      0
