@<TRIPOS>MOLECULE
LIG
46 49 1 0 1
SMALL
USER_CHARGES
@<TRIPOS>CRYSIN
   39.9486    39.9486    39.9486   109.4712   109.4712   109.4712  1  1
@<TRIPOS>ATOM
       1 C1           1.3924     1.4781   -12.2347 c3            1 LIG       -0.131900
       2 C2           0.6560     1.6581   -13.5745 c3            1 LIG        0.127900
       3 C3           1.9975    -0.2652   -14.6166 c3            1 LIG        0.127900
       4 C4           2.6435    -0.5117   -13.3243 c3            1 LIG       -0.131900
       5 C5          13.4439     3.5408   -11.6950 ca            1 LIG       -0.164000
       6 O1           0.7034     0.3719   -14.3018 os            1 LIG       -0.413600
       7 C6           9.0938     1.5736   -11.6869 c             1 LIG        0.704700
       8 C7          12.6846     2.7047   -10.8456 ca            1 LIG        0.117900
       9 C8           4.5802     1.0615   -10.6981 ca            1 LIG        0.920900
      10 C9           2.7862     0.7768   -12.4328 c3            1 LIG        0.219500
      11 C10          6.9256     1.6303    -9.8238 ca            1 LIG       -0.417400
      12 C11          8.1584     2.0572    -9.3228 cc            1 LIG        0.000800
      13 C12         12.9535     4.7904   -12.1518 ca            1 LIG       -0.107000
      14 C13         11.7004     5.2685   -11.6986 ca            1 LIG       -0.139000
      15 C14         10.8947     4.4559   -10.8410 ca            1 LIG       -0.099000
      16 C15          6.7523     1.3226   -11.1832 ca            1 LIG        0.619200
      17 C16          5.8357     1.7321    -8.9937 ca            1 LIG        0.521200
      18 C17          9.2223     2.0713   -10.2545 cd            1 LIG       -0.045100
      19 C18         11.3734     3.1580   -10.5048 ca            1 LIG        0.045100
      20 C19          7.5147     0.6375   -13.4452 c3            1 LIG        0.071300
      21 F1          13.0573     1.4667   -10.4870 f             1 LIG       -0.137900
      22 O2          10.4784     2.4278    -9.7219 os            1 LIG       -0.226200
      23 N1           4.6526     1.3455    -9.4402 nb            1 LIG       -0.763000
      24 O3          10.0400     1.3443   -12.4226 o             1 LIG       -0.617500
      25 N2           7.8326     1.1765   -12.1212 n             1 LIG       -0.424300
      26 N3           5.5497     1.0122   -11.5969 nb            1 LIG       -0.806000
      27 N4           3.4132     0.4772   -11.0978 nu            1 LIG       -0.825900
      28 H1           1.6148     2.4167   -11.7122 hc            1 LIG        0.060700
      29 H2           0.8171     0.8573   -11.5369 hc            1 LIG        0.060700
      30 H3          -0.3827     2.0005   -13.4899 h1            1 LIG        0.052450
      31 H4           1.1005     2.4224   -14.2240 h1            1 LIG        0.052450
      32 H5           2.7143     0.3969   -15.1180 h1            1 LIG        0.052450
      33 H6           1.8294    -1.2410   -15.0887 h1            1 LIG        0.052450
      34 H7           2.0080    -1.1921   -12.7442 hc            1 LIG        0.060700
      35 H8           3.5688    -1.0796   -13.4811 hc            1 LIG        0.060700
      36 H9          14.4491     3.2487   -11.9844 ha            1 LIG        0.149000
      37 H10          3.4144     1.4811   -12.9920 h1            1 LIG        0.085700
      38 H11          8.4639     2.3942    -8.3388 ha            1 LIG        0.164000
      39 H12         11.4674     6.2420   -12.1199 ha            1 LIG        0.141000
      40 H13          9.9645     4.8752   -10.4692 ha            1 LIG        0.178000
      41 H14          5.9717     2.1056    -7.9798 h4            1 LIG        0.035100
      42 H15          8.4403     0.3658   -13.9677 h1            1 LIG        0.063033
      43 H16          6.8171    -0.1988   -13.3136 h1            1 LIG        0.063033
      44 H17          7.0286     1.4396   -14.0142 h1            1 LIG        0.063033
      45 H18          2.8155     0.4091   -10.2839 hn            1 LIG        0.439800
      46 H19         13.6601     5.4226   -12.6814 ha            1 LIG        0.139000
@<TRIPOS>BOND
       1       20       25 1
       2       19       22 1
       3       18       22 1
       4       17       23 1
       5       16       25 1
       6       16       26 1
       7       15       19 1
       8       14       15 1
       9       13       14 1
      10       12       18 1
      11       11       12 1
      12       11       16 1
      13       11       17 1
      14       10       27 1
      15        9       23 1
      16        9       26 1
      17        9       27 1
      18        8       19 1
      19        8       21 1
      20        7       18 1
      21        7       24 1
      22        7       25 1
      23        5        8 1
      24        5       13 1
      25        4       10 1
      26        3        4 1
      27        3        6 1
      28        2        6 1
      29        1        2 1
      30        1       10 1
      31       27       45 1
      32       20       42 1
      33       20       43 1
      34       20       44 1
      35       17       41 1
      36       15       40 1
      37       14       39 1
      38       13       46 1
      39       12       38 1
      40       10       37 1
      41        5       36 1
      42        4       34 1
      43        4       35 1
      44        3       32 1
      45        3       33 1
      46        2       30 1
      47        2       31 1
      48        1       28 1
      49        1       29 1
@<TRIPOS>SUBSTRUCTURE
       1 LIG             1 RESIDUE    0 **** ROOT      0
