@<TRIPOS>MOLECULE
LIG
48 51 1 0 1
SMALL
USER_CHARGES
@<TRIPOS>CRYSIN
   40.5471    40.5471    40.5471   109.4712   109.4712   109.4712  1  1
@<TRIPOS>ATOM
       1 C1           4.8778   -16.9264    15.6318 ca            1 LIG       -0.206000
       2 C2           2.3299   -20.2899    12.6192 c             1 LIG        0.704700
       3 C3           4.2884   -17.8040    14.7096 ca            1 LIG        0.146900
       4 C4          -1.9339   -18.2592    12.4196 ca            1 LIG        0.918900
       5 C5           0.7064   -17.9923    12.2994 ca            1 LIG       -0.414400
       6 C6           2.1422   -17.7599    12.3538 cc            1 LIG        0.001800
       7 C7           6.0412   -16.2663    15.2849 ca            1 LIG        0.152900
       8 C8           6.6421   -16.5300    14.0424 ca            1 LIG       -0.175000
       9 C9           6.0874   -17.3471    13.0719 ca            1 LIG       -0.075000
      10 C10          0.0563   -19.2723    12.4484 ca            1 LIG        0.619200
      11 C11         -0.1576   -16.9587    12.1062 ca            1 LIG        0.521200
      12 C12          2.9272   -18.8657    12.4670 cd            1 LIG       -0.046100
      13 C13          4.8842   -17.9733    13.3846 ca            1 LIG        0.029100
      14 C14          0.2484   -21.5491    13.0720 c3            1 LIG        0.070300
      15 F1           3.2554   -18.5548    15.0681 f             1 LIG       -0.130900
      16 O1           4.3268   -18.8724    12.5078 os            1 LIG       -0.223200
      17 N1          -1.4870   -17.0279    12.2610 nb            1 LIG       -0.759000
      18 O2           3.0427   -21.2861    12.7529 o             1 LIG       -0.616500
      19 N2           0.9048   -20.3072    12.7048 n             1 LIG       -0.422300
      20 N3          -1.2794   -19.4163    12.5120 nb            1 LIG       -0.805000
      21 N4          -3.2683   -18.4424    12.2397 nu            1 LIG       -0.824900
      22 H1           4.4147   -16.8015    16.6061 ha            1 LIG        0.167000
      23 H2           2.5913   -16.7759    12.2833 ha            1 LIG        0.165000
      24 H3           7.6296   -16.2042    13.7291 ha            1 LIG        0.159000
      25 H4           6.5612   -17.5976    12.1274 ha            1 LIG        0.185000
      26 H5           0.2041   -15.9331    12.0482 h4            1 LIG        0.037100
      27 H6          -0.4106   -21.9146    12.2748 h1            1 LIG        0.063700
      28 H7           0.9657   -22.3404    13.3224 h1            1 LIG        0.063700
      29 H8          -0.3628   -21.4234    13.9743 h1            1 LIG        0.063700
      30 H9          -3.7059   -17.5307    12.2781 hn            1 LIG        0.442800
      31 F2           6.6095   -15.4406    16.1471 f             1 LIG       -0.132900
      32 C15         -5.7782   -21.3521    12.5820 c3            1 LIG       -0.315600
      33 C16         -5.0993   -20.1232    11.9821 c3            1 LIG       -0.069400
      34 C17         -4.0253   -19.5474    12.9620 c3            1 LIG        0.209500
      35 C18         -4.6231   -18.9662    14.2347 c3            1 LIG       -0.069400
      36 C19         -5.4771   -20.0375    15.0331 c3            1 LIG       -0.315600
      37 H10         -5.0646   -22.1822    12.6537 h1            1 LIG        0.121200
      38 H11         -6.5814   -21.5840    11.8718 h1            1 LIG        0.121200
      39 H12         -5.7983   -19.3463    11.6487 hc            1 LIG        0.068450
      40 H13         -4.5837   -20.3686    11.0454 hc            1 LIG        0.068450
      41 H14         -3.4461   -20.4635    13.1314 h1            1 LIG        0.089700
      42 H15         -3.8051   -18.5785    14.8544 hc            1 LIG        0.068450
      43 H16         -5.2392   -18.1086    13.9375 hc            1 LIG        0.068450
      44 H17         -4.7594   -20.7608    15.4396 h1            1 LIG        0.121200
      45 H18         -6.0502   -19.5502    15.8316 h1            1 LIG        0.121200
      46 S1          -6.6373   -21.1279    14.0926 s6            1 LIG        1.325000
      47 O3          -7.7904   -20.2828    13.8712 o             1 LIG       -0.647800
      48 O4          -6.7023   -22.3868    14.7813 o             1 LIG       -0.647800
@<TRIPOS>BOND
       1       46       47 1
       2       46       48 1
       3       36       46 1
       4       35       36 1
       5       34       35 1
       6       33       34 1
       7       32       33 1
       8       32       46 1
       9       21       34 1
      10       14       19 1
      11       13       16 1
      12       12       16 1
      13       11       17 1
      14       10       19 1
      15       10       20 1
      16        9       13 1
      17        8        9 1
      18        7        8 1
      19        7       31 1
      20        6       12 1
      21        5        6 1
      22        5       10 1
      23        5       11 1
      24        4       17 1
      25        4       20 1
      26        4       21 1
      27        3       13 1
      28        3       15 1
      29        2       12 1
      30        2       18 1
      31        2       19 1
      32        1        3 1
      33        1        7 1
      34       36       44 1
      35       36       45 1
      36       35       42 1
      37       35       43 1
      38       34       41 1
      39       33       39 1
      40       33       40 1
      41       32       37 1
      42       32       38 1
      43       21       30 1
      44       14       27 1
      45       14       28 1
      46       14       29 1
      47       11       26 1
      48        9       25 1
      49        8       24 1
      50        6       23 1
      51        1       22 1
@<TRIPOS>SUBSTRUCTURE
       1 LIG             1 RESIDUE    0 **** ROOT      0
