@<TRIPOS>MOLECULE
LIG
46 49 1 0 1
SMALL
USER_CHARGES
@<TRIPOS>CRYSIN
   40.6673    40.6673    40.6673   109.4712   109.4712   109.4712  1  1
@<TRIPOS>ATOM
       1 C1           1.6436     0.9441   -10.1154 c3            1 LIG       -0.131400
       2 C2           0.4150     0.0960    -9.6319 c3            1 LIG        0.128400
       3 C3           1.4673    -0.1789    -7.3781 c3            1 LIG        0.128400
       4 C4           2.6179     0.7443    -7.8121 c3            1 LIG       -0.131400
       5 C5          11.9216    -3.6612    -5.8956 ca            1 LIG       -0.178000
       6 O1           0.2641     0.1733    -8.2283 os            1 LIG       -0.413600
       7 C6           8.7592    -1.8160    -9.2253 c             1 LIG        0.723700
       8 C7          12.0446    -2.9052    -7.0335 ca            1 LIG        0.164900
       9 C8           5.3087     1.2581    -9.4625 ca            1 LIG        0.910900
      10 C9           2.8780     0.5659    -9.3549 c3            1 LIG        0.216500
      11 C10          7.7929     0.8462    -9.1216 ca            1 LIG       -0.397400
      12 C11          9.1649     0.6705    -8.9140 cc            1 LIG       -0.022200
      13 C12         11.1474    -3.2375    -4.8004 ca            1 LIG       -0.080000
      14 C13         10.3825    -2.0478    -4.8906 ca            1 LIG       -0.155000
      15 C14         10.4385    -1.3096    -6.1119 ca            1 LIG       -0.060000
      16 C15          6.9751    -0.2010    -9.4203 ca            1 LIG        0.611200
      17 C16          7.2684     2.0776    -9.0938 ca            1 LIG        0.512200
      18 C17          9.6059    -0.6007    -8.9531 cd            1 LIG       -0.142600
      19 C18         11.1888    -1.7605    -7.2185 ca            1 LIG       -0.113100
      20 C19          6.6131    -2.6520   -10.0292 c3            1 LIG        0.072300
      21 F1          13.0264    -3.2139    -7.9211 f             1 LIG       -0.127900
      22 S1          11.4074    -0.6887    -8.6396 ss            1 LIG       -0.019500
      23 N1           5.9572     2.3474    -9.3331 nb            1 LIG       -0.762000
      24 O2           9.1743    -2.9519    -9.1013 o             1 LIG       -0.614500
      25 N2           7.4143    -1.5504    -9.5297 n             1 LIG       -0.420300
      26 N3           5.7137    -0.0180    -9.6380 nb            1 LIG       -0.800000
      27 N4           3.9635     1.4143    -9.7409 nu            1 LIG       -0.822900
      28 H1           1.7010     0.6272   -11.1641 hc            1 LIG        0.060200
      29 H2           1.4484     2.0217   -10.1783 hc            1 LIG        0.060200
      30 H3          -0.5060     0.4333   -10.1233 h1            1 LIG        0.051950
      31 H4           0.5365    -0.9283   -10.0054 h1            1 LIG        0.051950
      32 H5           1.6299    -1.2417    -7.5954 h1            1 LIG        0.051950
      33 H6           1.1941    -0.1184    -6.3174 h1            1 LIG        0.051950
      34 H7           2.4898     1.8224    -7.6551 hc            1 LIG        0.060200
      35 H8           3.4716     0.4486    -7.1899 hc            1 LIG        0.060200
      36 H9          12.5107    -4.5577    -5.7259 ha            1 LIG        0.153000
      37 H10          3.2067    -0.4742    -9.4713 h1            1 LIG        0.085700
      38 H11          9.8121     1.5252    -8.7537 ha            1 LIG        0.145000
      39 H12          9.7986    -1.7200    -4.0356 ha            1 LIG        0.143000
      40 H13          9.9277    -0.3621    -6.2559 ha            1 LIG        0.154000
      41 H14          7.8570     2.9893    -9.0024 h4            1 LIG        0.031100
      42 H15          5.9559    -2.3607   -10.8579 h1            1 LIG        0.062700
      43 H16          7.2254    -3.4768   -10.4142 h1            1 LIG        0.062700
      44 H17          5.9766    -2.9968    -9.2049 h1            1 LIG        0.062700
      45 H18          3.7713     2.3998    -9.6145 hn            1 LIG        0.435800
      46 H19         11.1963    -3.7429    -3.8404 ha            1 LIG        0.142000
@<TRIPOS>BOND
       1       20       25 1
       2       19       22 1
       3       18       22 1
       4       17       23 1
       5       16       25 1
       6       16       26 1
       7       15       19 1
       8       14       15 1
       9       13       14 1
      10       12       18 1
      11       11       12 1
      12       11       16 1
      13       11       17 1
      14       10       27 1
      15        9       23 1
      16        9       26 1
      17        9       27 1
      18        8       19 1
      19        8       21 1
      20        7       18 1
      21        7       24 1
      22        7       25 1
      23        5        8 1
      24        5       13 1
      25        4       10 1
      26        3        4 1
      27        3        6 1
      28        2        6 1
      29        1        2 1
      30        1       10 1
      31       27       45 1
      32       20       42 1
      33       20       43 1
      34       20       44 1
      35       17       41 1
      36       15       40 1
      37       14       39 1
      38       13       46 1
      39       12       38 1
      40       10       37 1
      41        5       36 1
      42        4       34 1
      43        4       35 1
      44        3       32 1
      45        3       33 1
      46        2       30 1
      47        2       31 1
      48        1       28 1
      49        1       29 1
@<TRIPOS>SUBSTRUCTURE
       1 LIG             1 RESIDUE    0 **** ROOT      0
