@<TRIPOS>MOLECULE
LIG
48 51 1 0 1
SMALL
USER_CHARGES
@<TRIPOS>CRYSIN
   40.2703    40.2703    40.2703   109.4712   109.4712   109.4712  1  1
@<TRIPOS>ATOM
       1 C1           4.1301    -7.2499    -7.8674 c3            1 LIG       -0.131900
       2 C2           3.1570    -7.3300    -6.7002 c3            1 LIG        0.127900
       3 C3           1.3882    -6.1279    -7.8642 c3            1 LIG        0.127900
       4 C4           2.2581    -6.0751    -9.1925 c3            1 LIG       -0.131900
       5 C5          12.2630    -0.2553   -11.3615 ca            1 LIG       -0.166000
       6 O1           1.7882    -7.3034    -7.1469 os            1 LIG       -0.413600
       7 C6           9.2688    -2.8515    -7.7461 c             1 LIG        0.709700
       8 C7          11.9056    -1.4438   -10.7229 ca            1 LIG        0.119900
       9 C8           6.0818    -5.6746    -9.7568 ca            1 LIG        0.915900
      10 C9           3.8039    -6.0271    -8.7400 c3            1 LIG        0.217500
      11 C10          8.6156    -4.7562    -9.7174 ca            1 LIG       -0.416400
      12 C11         10.0091    -4.3249    -9.7580 cc            1 LIG        0.005800
      13 C12         12.8945     0.7549   -10.6367 ca            1 LIG       -0.107000
      14 C13         13.0500     0.6700    -9.2292 ca            1 LIG       -0.143000
      15 C14         12.6926    -0.4735    -8.5752 ca            1 LIG       -0.097000
      16 C15          7.7033    -4.3710    -8.7429 ca            1 LIG        0.616200
      17 C16          8.1244    -5.5743   -10.7161 ca            1 LIG        0.517200
      18 C17         10.3254    -3.3869    -8.7518 cd            1 LIG       -0.197400
      19 C18         12.1173    -1.5840    -9.2612 ca            1 LIG       -0.111300
      20 C19          7.2429    -3.4149    -6.4224 c3            1 LIG        0.071300
      21 F1          11.4201    -2.4376   -11.4413 f             1 LIG       -0.148900
      22 C20         11.7261    -2.8779    -8.5279 c3            1 LIG        0.017100
      23 N1           6.8953    -6.0980   -10.7411 nb            1 LIG       -0.764000
      24 O2           9.4862    -2.0868    -6.8416 o             1 LIG       -0.635500
      25 N2           8.0500    -3.5171    -7.6818 n             1 LIG       -0.422300
      26 N3           6.4000    -4.8036    -8.7689 nb            1 LIG       -0.805000
      27 N4           4.7774    -6.0494    -9.8787 nu            1 LIG       -0.823900
      28 H1           5.1493    -7.1853    -7.4668 hc            1 LIG        0.060200
      29 H2           4.0725    -8.1690    -8.4634 hc            1 LIG        0.060200
      30 H3           3.4426    -8.2658    -6.2041 h1            1 LIG        0.051950
      31 H4           3.4800    -6.5140    -6.0420 h1            1 LIG        0.051950
      32 H5           1.5619    -5.1887    -7.3246 h1            1 LIG        0.051950
      33 H6           0.3167    -6.0330    -8.0793 h1            1 LIG        0.051950
      34 H7           2.0914    -6.9467    -9.8374 hc            1 LIG        0.060200
      35 H8           1.9682    -5.1453    -9.6973 hc            1 LIG        0.060200
      36 H9          12.0905    -0.1843   -12.4313 ha            1 LIG        0.146000
      37 H10          3.9879    -5.1636    -8.0889 h1            1 LIG        0.085700
      38 H11         10.7365    -4.7094   -10.4638 ha            1 LIG        0.150000
      39 H12         13.5353     1.4755    -8.6861 ha            1 LIG        0.137000
      40 H13         12.7565    -0.6161    -7.5005 ha            1 LIG        0.161000
      41 H14          8.7269    -5.8920   -11.5658 h4            1 LIG        0.033100
      42 H15          6.5583    -4.2694    -6.3553 h1            1 LIG        0.062033
      43 H16          7.8540    -3.2917    -5.5197 h1            1 LIG        0.062033
      44 H17          6.5861    -2.5382    -6.4802 h1            1 LIG        0.062033
      45 H18          4.6061    -6.5892   -10.7174 hn            1 LIG        0.437800
      46 H19         13.1672     1.7235   -11.0450 ha            1 LIG        0.136000
      47 H20         11.9335    -2.7496    -7.4583 hc            1 LIG        0.073200
      48 H21         12.3777    -3.7490    -8.6695 hc            1 LIG        0.073200
@<TRIPOS>BOND
       1       20       25 1
       2       19       22 1
       3       18       22 1
       4       17       23 1
       5       16       25 1
       6       16       26 1
       7       15       19 1
       8       14       15 1
       9       13       14 1
      10       12       18 1
      11       11       12 1
      12       11       16 1
      13       11       17 1
      14       10       27 1
      15        9       23 1
      16        9       26 1
      17        9       27 1
      18        8       19 1
      19        8       21 1
      20        7       18 1
      21        7       24 1
      22        7       25 1
      23        5        8 1
      24        5       13 1
      25        4       10 1
      26        3        4 1
      27        3        6 1
      28        2        6 1
      29        1        2 1
      30        1       10 1
      31       27       45 1
      32       22       47 1
      33       22       48 1
      34       20       42 1
      35       20       43 1
      36       20       44 1
      37       17       41 1
      38       15       40 1
      39       14       39 1
      40       13       46 1
      41       12       38 1
      42       10       37 1
      43        5       36 1
      44        4       34 1
      45        4       35 1
      46        3       32 1
      47        3       33 1
      48        2       30 1
      49        2       31 1
      50        1       28 1
      51        1       29 1
@<TRIPOS>SUBSTRUCTURE
       1 LIG             1 RESIDUE    0 **** ROOT      0
