@<TRIPOS>MOLECULE
LIG
48 51 1 0 1
SMALL
USER_CHARGES
@<TRIPOS>CRYSIN
   40.5924    40.5924    40.5924   109.4712   109.4712   109.4712  1  1
@<TRIPOS>ATOM
       1 C1          -0.9668    -1.9736   -16.4908 c3            1 LIG       -0.131900
       2 C2          -2.3272    -2.6458   -16.2228 c3            1 LIG        0.127900
       3 C3          -3.2378    -0.7913   -15.0306 c3            1 LIG        0.127900
       4 C4          -1.9027     0.0185   -15.2994 c3            1 LIG       -0.131900
       5 C5          10.0515    -0.0696   -12.9970 ca            1 LIG       -0.208000
       6 O1          -3.3463    -1.7239   -16.1027 os            1 LIG       -0.413600
       7 C6           5.2357    -3.1999   -15.1045 c             1 LIG        0.709700
       8 C7           9.3633    -0.5504   -14.0928 ca            1 LIG        0.147900
       9 C8           1.6848    -0.1988   -15.5851 ca            1 LIG        0.917900
      10 C9          -0.7486    -0.8809   -15.4227 c3            1 LIG        0.218500
      11 C10          4.2496    -0.5657   -15.3576 ca            1 LIG       -0.419400
      12 C11          5.6581    -0.7714   -15.5167 cc            1 LIG        0.008800
      13 C12          8.4859    -1.2390   -11.6185 ca            1 LIG       -0.179000
      14 C13          7.8841    -1.7734   -12.7278 ca            1 LIG       -0.074000
      15 C14          3.4076    -1.6394   -15.3050 ca            1 LIG        0.617200
      16 C15          3.7238     0.6579   -15.6670 ca            1 LIG        0.518200
      17 C16          6.0680    -2.0199   -15.3147 cd            1 LIG       -0.201400
      18 C17          8.3777    -1.5377   -14.0317 ca            1 LIG       -0.125300
      19 C18          2.9285    -4.0588   -14.9532 c3            1 LIG        0.070300
      20 F1           9.7888    -0.0719   -15.3040 f             1 LIG       -0.141900
      21 C19          7.6092    -2.1309   -15.2295 c3            1 LIG        0.020100
      22 N1           2.3651     0.8255   -15.7970 nb            1 LIG       -0.763000
      23 O2           5.6704    -4.3871   -15.0299 o             1 LIG       -0.637500
      24 N2           3.8766    -2.9600   -15.1792 n             1 LIG       -0.422300
      25 N3           2.0377    -1.4943   -15.4366 nb            1 LIG       -0.805000
      26 N4           0.3297    -0.0475   -15.7523 nu            1 LIG       -0.824900
      27 H1          -0.2128    -2.7616   -16.3728 hc            1 LIG        0.060450
      28 H2          -0.9326    -1.6412   -17.5357 hc            1 LIG        0.060450
      29 H3          -2.5819    -3.3744   -17.0024 h1            1 LIG        0.052200
      30 H4          -2.1828    -3.1844   -15.2781 h1            1 LIG        0.052200
      31 H5          -3.2346    -1.1766   -14.0035 h1            1 LIG        0.052200
      32 H6          -4.1247    -0.1476   -15.0807 h1            1 LIG        0.052200
      33 H7          -2.0145     0.5218   -16.2677 hc            1 LIG        0.060450
      34 H8          -1.6103     0.7319   -14.5191 hc            1 LIG        0.060450
      35 H9          10.9141     0.5848   -13.0809 ha            1 LIG        0.163000
      36 H10         -0.5983    -1.2983   -14.4194 h1            1 LIG        0.084700
      37 H11          6.3724     0.0385   -15.6105 ha            1 LIG        0.149000
      38 H12          8.0485    -1.3727   -10.6336 ha            1 LIG        0.154000
      39 H13          7.0098    -2.3888   -12.5372 ha            1 LIG        0.170000
      40 H14          4.3552     1.5026   -15.9386 h4            1 LIG        0.033100
      41 H15          3.4618    -5.0170   -14.9239 h1            1 LIG        0.062700
      42 H16          2.2208    -3.8985   -14.1305 h1            1 LIG        0.062700
      43 H17          2.2752    -4.1704   -15.8274 h1            1 LIG        0.062700
      44 H18          0.1350     0.8975   -16.0574 hn            1 LIG        0.438800
      45 H19          7.7985    -3.1993   -15.3911 hc            1 LIG        0.073700
      46 H20          8.0924    -1.7486   -16.1372 hc            1 LIG        0.073700
      47 C20          9.6560    -0.4954   -11.7423 ca            1 LIG        0.148900
      48 F2          10.2079     0.0483   -10.6279 f             1 LIG       -0.136900
@<TRIPOS>BOND
       1       47       48 1
       2       19       24 1
       3       18       21 1
       4       17       21 1
       5       16       22 1
       6       15       24 1
       7       15       25 1
       8       14       18 1
       9       13       14 1
      10       13       47 1
      11       12       17 1
      12       11       12 1
      13       11       15 1
      14       11       16 1
      15       10       26 1
      16        9       22 1
      17        9       25 1
      18        9       26 1
      19        8       18 1
      20        8       20 1
      21        7       17 1
      22        7       23 1
      23        7       24 1
      24        5        8 1
      25        5       47 1
      26        4       10 1
      27        3        4 1
      28        3        6 1
      29        2        6 1
      30        1        2 1
      31        1       10 1
      32       26       44 1
      33       21       45 1
      34       21       46 1
      35       19       41 1
      36       19       42 1
      37       19       43 1
      38       16       40 1
      39       14       39 1
      40       13       38 1
      41       12       37 1
      42       10       36 1
      43        5       35 1
      44        4       33 1
      45        4       34 1
      46        3       31 1
      47        3       32 1
      48        2       29 1
      49        2       30 1
      50        1       27 1
      51        1       28 1
@<TRIPOS>SUBSTRUCTURE
       1 LIG             1 RESIDUE    0 **** ROOT      0
