@<TRIPOS>MOLECULE
LIG
43 46 1 0 1
SMALL
USER_CHARGES
@<TRIPOS>CRYSIN
   40.3285    40.3285    40.3285   109.4712   109.4712   109.4712  1  1
@<TRIPOS>ATOM
       1 C1          15.6939     5.0622   -21.3959 ca            1 LIG       -0.206000
       2 C2          14.3378     1.3803   -18.6009 c             1 LIG        0.704700
       3 C3          15.5275     3.7408   -21.4099 ca            1 LIG        0.146900
       4 C4          10.4869    -1.1663   -19.2122 ca            1 LIG        0.925900
       5 C5          12.6124    -0.0510   -20.3730 ca            1 LIG       -0.422400
       6 C6          13.8703     0.4630   -20.9093 cc            1 LIG        0.007800
       7 C7          16.6297     5.6103   -20.5256 ca            1 LIG        0.151900
       8 C8          17.2672     4.7890   -19.5364 ca            1 LIG       -0.174000
       9 C9          17.1257     3.3987   -19.5906 ca            1 LIG       -0.076000
      10 C10         12.2656     0.2249   -19.0598 ca            1 LIG        0.619200
      11 C11         11.7289    -0.8784   -21.0834 ca            1 LIG        0.524200
      12 C12         14.6950     1.1656   -20.0662 cd            1 LIG       -0.051100
      13 C13         16.2589     2.8973   -20.5189 ca            1 LIG        0.029100
      14 H1          12.6734     1.1951   -17.4039 hn            1 LIG        0.348500
      15 F1          14.6498     3.0740   -22.3434 f             1 LIG       -0.129900
      16 O1          15.9158     1.5520   -20.5600 os            1 LIG       -0.223200
      17 N1          10.6042    -1.3972   -20.5137 nb            1 LIG       -0.763000
      18 O2          15.0376     1.9028   -17.7411 o             1 LIG       -0.618500
      19 N2          13.1251     0.9060   -18.2633 ns            1 LIG       -0.519400
      20 N3          11.2477    -0.4182   -18.4433 nb            1 LIG       -0.810000
      21 N4           9.4525    -1.9261   -18.6913 nu            1 LIG       -0.825900
      22 H2          15.1525     5.6763   -22.1095 ha            1 LIG        0.167000
      23 H3          14.2024     0.2719   -21.9233 ha            1 LIG        0.164000
      24 H4          17.9024     5.2464   -18.7836 ha            1 LIG        0.159000
      25 H5          17.7272     2.7098   -19.0050 ha            1 LIG        0.186000
      26 H6          11.9666    -1.2076   -22.0938 h4            1 LIG        0.035100
      27 H7           8.7495    -2.2482   -19.3442 hn            1 LIG        0.442800
      28 F2          16.9349     6.9120   -20.5873 f             1 LIG       -0.133900
      29 C14          9.7536    -4.7942   -16.1175 c3            1 LIG        0.127900
      30 C15          9.5192    -4.1558   -17.5080 c3            1 LIG       -0.131900
      31 C16          9.5414    -2.5932   -17.4109 c3            1 LIG        0.220500
      32 C17          8.4423    -2.1489   -16.4314 c3            1 LIG       -0.131900
      33 C18          8.6903    -2.8609   -15.0750 c3            1 LIG        0.127900
      34 O3           8.6859    -4.3128   -15.2264 os            1 LIG       -0.412600
      35 H8          10.7368    -4.6857   -15.6432 h1            1 LIG        0.053200
      36 H9           9.6960    -5.8608   -16.3678 h1            1 LIG        0.053200
      37 H10          8.5243    -4.5302   -17.7789 hc            1 LIG        0.060700
      38 H11         10.2879    -4.4914   -18.2150 hc            1 LIG        0.060700
      39 H12         10.5038    -2.3605   -16.9385 h1            1 LIG        0.085700
      40 H13          8.6106    -1.0953   -16.1766 hc            1 LIG        0.060700
      41 H14          7.4110    -2.2507   -16.7912 hc            1 LIG        0.060700
      42 H15          9.6621    -2.4690   -14.7502 h1            1 LIG        0.053200
      43 H16          7.9096    -2.5113   -14.3883 h1            1 LIG        0.053200
@<TRIPOS>BOND
       1       33       34 1
       2       32       33 1
       3       31       32 1
       4       30       31 1
       5       29       30 1
       6       29       34 1
       7       21       31 1
       8       13       16 1
       9       12       16 1
      10       11       17 1
      11       10       19 1
      12       10       20 1
      13        9       13 1
      14        8        9 1
      15        7        8 1
      16        7       28 1
      17        6       12 1
      18        5        6 1
      19        5       10 1
      20        5       11 1
      21        4       17 1
      22        4       20 1
      23        4       21 1
      24        3       13 1
      25        3       15 1
      26        2       12 1
      27        2       18 1
      28        2       19 1
      29        1        3 1
      30        1        7 1
      31       33       42 1
      32       33       43 1
      33       32       40 1
      34       32       41 1
      35       31       39 1
      36       30       37 1
      37       30       38 1
      38       29       35 1
      39       29       36 1
      40       21       27 1
      41       14       19 1
      42       11       26 1
      43        9       25 1
      44        8       24 1
      45        6       23 1
      46        1       22 1
@<TRIPOS>SUBSTRUCTURE
       1 LIG             1 RESIDUE    0 **** ROOT      0
