@<TRIPOS>MOLECULE
LIG
49 52 1 0 1
SMALL
USER_CHARGES
@<TRIPOS>CRYSIN
   40.2503    40.2503    40.2503   109.4712   109.4712   109.4712  1  1
@<TRIPOS>ATOM
       1 C1           0.7714     8.8653    -7.9619 ca            1 LIG       -0.185000
       2 C2          -2.1176     5.2590   -10.9354 c             1 LIG        0.696700
       3 C3           0.3843     7.4758    -8.1136 ca            1 LIG        0.147900
       4 C4          -5.2914     1.6988   -11.0832 ca            1 LIG        0.923900
       5 C5          -3.9231     3.4984    -9.6574 ca            1 LIG       -0.426400
       6 C6          -3.1704     4.4632    -8.8319 cc            1 LIG        0.003800
       7 C7          -0.0360     9.8413    -8.5889 ca            1 LIG        0.126900
       8 C8          -1.1643     9.5447    -9.3971 ca            1 LIG       -0.152000
       9 C9          -1.5636     8.1754    -9.5019 ca            1 LIG       -0.134000
      10 C10         -3.9439     3.5504   -11.0003 ca            1 LIG        0.626200
      11 C11         -4.7825     2.5673    -9.0680 ca            1 LIG        0.521200
      12 C12         -2.3044     5.2902    -9.4839 cd            1 LIG       -0.055100
      13 C13         -0.7929     7.1604    -8.8693 ca            1 LIG        0.072100
      14 F1           0.9835     6.5177    -7.4050 f             1 LIG       -0.116900
      15 O1          -1.3310     5.8910    -8.7344 os            1 LIG       -0.211200
      16 N1          -5.3794     1.5729    -9.7740 nb            1 LIG       -0.763000
      17 O2          -1.1885     5.7535   -11.5640 o             1 LIG       -0.595500
      18 N2          -3.0555     4.4734   -11.6627 n             1 LIG       -0.424300
      19 N3          -4.6124     2.6657   -11.7658 nb            1 LIG       -0.808000
      20 N4          -5.9359     0.7019   -11.8008 nu            1 LIG       -0.826900
      21 H1           1.6663     9.0817    -7.3860 ha            1 LIG        0.167000
      22 H2          -3.0421     4.3509    -7.7614 ha            1 LIG        0.159000
      23 H3          -1.5430    10.2729   -10.1083 ha            1 LIG        0.154000
      24 H4          -2.4455     7.9702   -10.1015 ha            1 LIG        0.151000
      25 H5          -4.9858     2.4795    -8.0017 h4            1 LIG        0.033100
      26 H6          -6.6067     0.1566   -11.2747 hn            1 LIG        0.442800
      27 F2           0.3547    11.1663    -8.5410 f             1 LIG       -0.135900
      28 C14         -6.0713    -1.2441   -15.0290 c3            1 LIG        0.128400
      29 C15         -6.5210    -0.6209   -13.7226 c3            1 LIG       -0.131900
      30 C16         -5.5030     0.3074   -13.1189 c3            1 LIG        0.221500
      31 C17         -4.1430    -0.4128   -12.9982 c3            1 LIG       -0.131900
      32 C18         -3.7805    -1.1013   -14.3012 c3            1 LIG        0.128400
      33 O3          -4.8362    -1.9894   -14.7603 os            1 LIG       -0.412600
      34 H7          -5.9167    -0.4002   -15.7126 h1            1 LIG        0.052950
      35 H8          -6.8148    -1.9118   -15.4815 h1            1 LIG        0.052950
      36 H9          -6.8018    -1.4553   -13.0680 hc            1 LIG        0.060950
      37 H10         -7.4809    -0.1537   -13.9752 hc            1 LIG        0.060950
      38 H11         -5.2772     1.1392   -13.7976 h1            1 LIG        0.083700
      39 H12         -3.3562     0.2023   -12.5443 hc            1 LIG        0.060950
      40 H13         -4.3020    -1.1966   -12.2473 hc            1 LIG        0.060950
      41 H14         -3.5128    -0.3658   -15.0698 h1            1 LIG        0.052950
      42 H15         -2.8705    -1.6981   -14.1630 h1            1 LIG        0.052950
      43 C19         -2.7400     4.1713   -13.0834 c3            1 LIG        0.085000
      44 H16         -3.6304     3.7819   -13.5925 h1            1 LIG        0.075700
      45 H17         -2.3866     5.1307   -13.4810 h1            1 LIG        0.075700
      46 C20         -1.7260     3.0274   -13.2425 c3            1 LIG       -0.111100
      47 H18         -1.6626     2.5984   -14.2501 hc            1 LIG        0.047033
      48 H19         -0.7434     3.4499   -12.9989 hc            1 LIG        0.047033
      49 H20         -1.9897     2.1581   -12.6275 hc            1 LIG        0.047033
@<TRIPOS>BOND
       1       43       46 1
       2       32       33 1
       3       31       32 1
       4       30       31 1
       5       29       30 1
       6       28       29 1
       7       28       33 1
       8       20       30 1
       9       18       43 1
      10       13       15 1
      11       12       15 1
      12       11       16 1
      13       10       18 1
      14       10       19 1
      15        9       13 1
      16        8        9 1
      17        7        8 1
      18        7       27 1
      19        6       12 1
      20        5        6 1
      21        5       10 1
      22        5       11 1
      23        4       16 1
      24        4       19 1
      25        4       20 1
      26        3       13 1
      27        3       14 1
      28        2       12 1
      29        2       17 1
      30        2       18 1
      31        1        3 1
      32        1        7 1
      33       46       47 1
      34       46       48 1
      35       46       49 1
      36       43       44 1
      37       43       45 1
      38       32       41 1
      39       32       42 1
      40       31       39 1
      41       31       40 1
      42       30       38 1
      43       29       36 1
      44       29       37 1
      45       28       34 1
      46       28       35 1
      47       20       26 1
      48       11       25 1
      49        9       24 1
      50        8       23 1
      51        6       22 1
      52        1       21 1
@<TRIPOS>SUBSTRUCTURE
       1 LIG             1 RESIDUE    0 **** ROOT      0
