@<TRIPOS>MOLECULE
LIG
53 56 1 0 1
SMALL
USER_CHARGES
@<TRIPOS>CRYSIN
   40.7304    40.7304    40.7304   109.4712   109.4712   109.4712  1  1
@<TRIPOS>ATOM
       1 C1           0.0735     6.3277   -17.5654 ca            1 LIG       -0.206000
       2 C2           0.4657     2.0690   -14.1508 c             1 LIG        0.704700
       3 C3           0.1945     5.9211   -16.2716 ca            1 LIG        0.145900
       4 C4          -2.4841    -0.5901   -11.7136 ca            1 LIG        0.924900
       5 C5          -2.0083     1.6241   -12.9243 ca            1 LIG       -0.422400
       6 C6          -1.7710     2.9509   -13.4685 cc            1 LIG        0.007800
       7 C7          -0.6703     5.5078   -18.4275 ca            1 LIG        0.151900
       8 C8          -1.0842     4.2505   -18.0355 ca            1 LIG       -0.175000
       9 C9          -0.9984     3.8416   -16.7197 ca            1 LIG       -0.076000
      10 C10         -1.0031     0.6677   -12.8711 ca            1 LIG        0.623200
      11 C11         -3.2024     1.3493   -12.3390 ca            1 LIG        0.522200
      12 C12         -0.5423     3.1633   -13.9708 cd            1 LIG       -0.053100
      13 C13         -0.3806     4.7395   -15.7767 ca            1 LIG        0.030100
      14 F1           0.7844     6.7189   -15.3682 f             1 LIG       -0.130900
      15 O1          -0.2270     4.4322   -14.4777 os            1 LIG       -0.223200
      16 N1          -3.4733     0.1613   -11.7770 nb            1 LIG       -0.762000
      17 O2           1.5678     2.3060   -14.6201 o             1 LIG       -0.621500
      18 N2           0.2148     0.9170   -13.5328 n             1 LIG       -0.423300
      19 N3          -1.2773    -0.4445   -12.2197 nb            1 LIG       -0.809000
      20 N4          -2.7358    -1.8205   -11.0846 nu            1 LIG       -0.826900
      21 H1           0.5056     7.2199   -18.0088 ha            1 LIG        0.167000
      22 H2          -2.4306     3.7968   -13.6247 ha            1 LIG        0.164000
      23 H3          -1.5300     3.6305   -18.8078 ha            1 LIG        0.158000
      24 H4          -1.3465     2.8591   -16.4149 ha            1 LIG        0.185000
      25 H5          -3.9644     2.1239   -12.4111 h4            1 LIG        0.035100
      26 H6          -3.6730    -1.8590   -10.7048 hn            1 LIG        0.442800
      27 F2          -0.8673     5.9387   -19.6710 f             1 LIG       -0.133900
      28 C14         -1.2485    -4.9552    -9.3572 c3            1 LIG        0.127900
      29 C15         -2.0476    -4.1350   -10.3523 c3            1 LIG       -0.131400
      30 C16         -1.6487    -2.6422   -10.4146 c3            1 LIG        0.221500
      31 C17         -1.1774    -2.0849    -9.0886 c3            1 LIG       -0.131400
      32 C18         -0.1947    -2.9820    -8.2702 c3            1 LIG        0.127900
      33 O3          -0.8329    -4.2494    -8.1595 os            1 LIG       -0.412600
      34 H7          -0.3872    -5.3600    -9.9029 h1            1 LIG        0.054200
      35 H8          -1.8442    -5.8415    -9.1063 h1            1 LIG        0.054200
      36 H9          -3.0616    -4.2125    -9.9408 hc            1 LIG        0.060450
      37 H10         -1.9778    -4.6233   -11.3321 hc            1 LIG        0.060450
      38 H11         -0.7369    -2.6083   -11.0237 h1            1 LIG        0.082700
      39 H12         -0.5357    -1.2010    -9.1909 hc            1 LIG        0.060450
      40 H13         -2.0316    -1.8333    -8.4480 hc            1 LIG        0.060450
      41 H14          0.7735    -3.0558    -8.7807 h1            1 LIG        0.054200
      42 H15         -0.0486    -2.5817    -7.2593 h1            1 LIG        0.054200
      43 C19          1.2512    -0.1402   -13.5671 c3            1 LIG        0.091000
      44 H16          0.8268    -1.1513   -13.5977 h1            1 LIG        0.077200
      45 H17          1.8651     0.0404   -14.4581 h1            1 LIG        0.077200
      46 C20          2.2457    -0.0923   -12.3301 c3            1 LIG       -0.138400
      47 H18          3.0538    -0.7707   -12.6301 hc            1 LIG        0.060700
      48 H19          2.5984     0.9464   -12.3222 hc            1 LIG        0.060700
      49 C21          1.6329    -0.4340   -10.8777 c3            1 LIG        0.130400
      50 H20          0.9452     0.3069   -10.4518 h1            1 LIG        0.047200
      51 H21          0.9580    -1.2900   -11.0009 h1            1 LIG        0.047200
      52 O4           2.7555    -0.6258    -9.9125 oh            1 LIG       -0.596800
      53 H22          3.5534    -1.0469   -10.2768 ho            1 LIG        0.400000
@<TRIPOS>BOND
       1       49       52 1
       2       46       49 1
       3       43       46 1
       4       32       33 1
       5       31       32 1
       6       30       31 1
       7       29       30 1
       8       28       29 1
       9       28       33 1
      10       20       30 1
      11       18       43 1
      12       13       15 1
      13       12       15 1
      14       11       16 1
      15       10       18 1
      16       10       19 1
      17        9       13 1
      18        8        9 1
      19        7        8 1
      20        7       27 1
      21        6       12 1
      22        5        6 1
      23        5       10 1
      24        5       11 1
      25        4       16 1
      26        4       19 1
      27        4       20 1
      28        3       13 1
      29        3       14 1
      30        2       12 1
      31        2       17 1
      32        2       18 1
      33        1        3 1
      34        1        7 1
      35       52       53 1
      36       49       50 1
      37       49       51 1
      38       46       47 1
      39       46       48 1
      40       43       44 1
      41       43       45 1
      42       32       41 1
      43       32       42 1
      44       31       39 1
      45       31       40 1
      46       30       38 1
      47       29       36 1
      48       29       37 1
      49       28       34 1
      50       28       35 1
      51       20       26 1
      52       11       25 1
      53        9       24 1
      54        8       23 1
      55        6       22 1
      56        1       21 1
@<TRIPOS>SUBSTRUCTURE
       1 LIG             1 RESIDUE    0 **** ROOT      0
