@<TRIPOS>MOLECULE
LIG
55 58 1 0 1
SMALL
USER_CHARGES
@<TRIPOS>CRYSIN
   40.7118    40.7118    40.7118   109.4712   109.4712   109.4712  1  1
@<TRIPOS>ATOM
       1 C1           1.3691     8.8210   -13.2537 ca            1 LIG       -0.205000
       2 C2           3.4190     4.0986   -12.3276 c             1 LIG        0.707700
       3 C3           2.4057     8.1225   -12.6132 ca            1 LIG        0.146900
       4 C4           3.2766     0.3372    -9.6870 ca            1 LIG        0.932900
       5 C5           3.0601     2.9296    -9.7691 ca            1 LIG       -0.425400
       6 C6           2.9652     4.3876    -9.8586 cc            1 LIG        0.013800
       7 C7           0.0784     8.3049   -13.2173 ca            1 LIG        0.152900
       8 C8          -0.2330     7.1510   -12.4646 ca            1 LIG       -0.175000
       9 C9           0.8172     6.5263   -11.7715 ca            1 LIG       -0.076000
      10 C10          3.3603     2.1602   -10.9082 ca            1 LIG        0.622200
      11 C11          2.9236     2.2347    -8.5835 ca            1 LIG        0.524200
      12 C12          3.1422     4.9032   -11.1168 cd            1 LIG       -0.056100
      13 C13          2.1615     6.9199   -11.9076 ca            1 LIG        0.029100
      14 F1           3.6977     8.4929   -12.7299 f             1 LIG       -0.129900
      15 O1           3.1860     6.2636   -11.1910 os            1 LIG       -0.222200
      16 N1           3.1165     0.9682    -8.5888 nb            1 LIG       -0.761000
      17 O2           3.5607     4.7301   -13.3769 o             1 LIG       -0.626500
      18 N2           3.6503     2.7772   -12.1357 n             1 LIG       -0.423300
      19 N3           3.4273     0.8753   -10.8778 nb            1 LIG       -0.816000
      20 N4           3.6403    -0.9651    -9.5661 nu            1 LIG       -0.827900
      21 H1           1.5025     9.8029   -13.6981 ha            1 LIG        0.167000
      22 H2           2.8006     5.0300    -9.0011 ha            1 LIG        0.165000
      23 H3          -1.2517     6.8089   -12.3077 ha            1 LIG        0.158000
      24 H4           0.5812     5.7206   -11.0826 ha            1 LIG        0.183000
      25 H5           2.8430     2.6933    -7.5991 h4            1 LIG        0.036100
      26 H6           3.6258    -1.1563    -8.5725 hn            1 LIG        0.447800
      27 F2          -0.9767     9.0244   -13.6715 f             1 LIG       -0.132900
      28 C14          2.1817    -4.3412   -10.3726 c3            1 LIG        0.121900
      29 C15          2.5105    -3.1503    -9.4775 c3            1 LIG       -0.127400
      30 C16          3.1543    -2.0133   -10.3342 c3            1 LIG        0.219500
      31 C17          4.3287    -2.6838   -11.1106 c3            1 LIG       -0.127400
      32 C18          3.9142    -3.9133   -11.8886 c3            1 LIG        0.121900
      33 O3           3.3771    -4.7906   -10.9638 os            1 LIG       -0.413600
      34 H7           1.4114    -4.1678   -11.1341 h1            1 LIG        0.061950
      35 H8           1.7804    -5.1260    -9.7195 h1            1 LIG        0.061950
      36 H9           3.1586    -3.5159    -8.6714 hc            1 LIG        0.055950
      37 H10          1.5667    -2.7755    -9.0626 hc            1 LIG        0.055950
      38 H11          2.4335    -1.6926   -11.0965 h1            1 LIG        0.092700
      39 H12          4.7858    -1.9593   -11.7959 hc            1 LIG        0.055950
      40 H13          5.1999    -2.9336   -10.4925 hc            1 LIG        0.055950
      41 H14          3.2454    -3.5937   -12.6973 h1            1 LIG        0.061950
      42 H15          4.8424    -4.4260   -12.1696 h1            1 LIG        0.061950
      43 C19          4.1265     1.9410   -13.2412 c3            1 LIG        0.127000
      44 H16          3.8633     0.8783   -13.1718 h1            1 LIG        0.085200
      45 H17          3.8026     2.3134   -14.2209 h1            1 LIG        0.085200
      46 C20          5.6942     1.8218   -13.2900 c3            1 LIG       -0.347600
      47 H18          6.2985     2.6702   -13.6342 h1            1 LIG        0.128700
      48 H19          6.1635     1.5566   -12.3346 h1            1 LIG        0.128700
      49 S1           6.3050     0.5135   -14.3005 s6            1 LIG        1.343000
      50 O4           5.7423     0.5282   -15.6712 o             1 LIG       -0.655300
      51 O5           6.2931    -0.6976   -13.5136 o             1 LIG       -0.655300
      52 C21          7.9959     1.0465   -14.4888 c3            1 LIG       -0.377300
      53 H20          8.6716     0.1829   -14.4573 h1            1 LIG        0.123033
      54 H21          8.0309     1.5325   -15.4716 h1            1 LIG        0.123033
      55 H22          8.1607     1.7258   -13.6433 h1            1 LIG        0.123033
@<TRIPOS>BOND
       1       49       50 1
       2       49       51 1
       3       49       52 1
       4       46       49 1
       5       43       46 1
       6       32       33 1
       7       31       32 1
       8       30       31 1
       9       29       30 1
      10       28       29 1
      11       28       33 1
      12       20       30 1
      13       18       43 1
      14       13       15 1
      15       12       15 1
      16       11       16 1
      17       10       18 1
      18       10       19 1
      19        9       13 1
      20        8        9 1
      21        7        8 1
      22        7       27 1
      23        6       12 1
      24        5        6 1
      25        5       10 1
      26        5       11 1
      27        4       16 1
      28        4       19 1
      29        4       20 1
      30        3       13 1
      31        3       14 1
      32        2       12 1
      33        2       17 1
      34        2       18 1
      35        1        3 1
      36        1        7 1
      37       52       53 1
      38       52       54 1
      39       52       55 1
      40       46       47 1
      41       46       48 1
      42       43       44 1
      43       43       45 1
      44       32       41 1
      45       32       42 1
      46       31       39 1
      47       31       40 1
      48       30       38 1
      49       29       36 1
      50       29       37 1
      51       28       34 1
      52       28       35 1
      53       20       26 1
      54       11       25 1
      55        9       24 1
      56        8       23 1
      57        6       22 1
      58        1       21 1
@<TRIPOS>SUBSTRUCTURE
       1 LIG             1 RESIDUE    0 **** ROOT      0
