@<TRIPOS>MOLECULE
LIG
58 61 1 0 1
SMALL
USER_CHARGES
@<TRIPOS>CRYSIN
   41.3496    41.3496    41.3496   109.4712   109.4712   109.4712  1  1
@<TRIPOS>ATOM
       1 C1          13.2032     2.6722    -8.6341 ca            1 LIG       -0.207000
       2 C2          10.0004     1.1755   -12.9527 c             1 LIG        0.700700
       3 C3          12.4985     2.2466    -9.7646 ca            1 LIG        0.145900
       4 C4           6.0282     0.2730   -10.5626 ca            1 LIG        0.920900
       5 C5           8.1397     1.8138   -10.9159 ca            1 LIG       -0.417400
       6 C6           9.3707     2.7276   -11.0584 cc            1 LIG        0.001800
       7 C7          13.7715     3.9319    -8.6196 ca            1 LIG        0.151900
       8 C8          13.5170     4.9282    -9.6435 ca            1 LIG       -0.174000
       9 C9          12.6299     4.5832   -10.6802 ca            1 LIG       -0.073000
      10 C10          7.9089     0.7342   -11.7508 ca            1 LIG        0.622200
      11 C11          7.2399     2.0446    -9.8581 ca            1 LIG        0.521200
      12 C12         10.3055     2.2581   -11.9438 cd            1 LIG       -0.046100
      13 C13         12.1848     3.2380   -10.7568 ca            1 LIG        0.029100
      14 F1          12.0217     1.0065    -9.8001 f             1 LIG       -0.131900
      15 O1          11.5382     2.7517   -11.9548 os            1 LIG       -0.223200
      16 N1           6.1883     1.2293    -9.6424 nb            1 LIG       -0.762000
      17 O2          10.7419     0.9416   -13.8166 o             1 LIG       -0.603500
      18 N2           8.7555     0.5233   -12.8758 n             1 LIG       -0.423300
      19 N3           6.8707    -0.0501   -11.5656 nb            1 LIG       -0.811000
      20 N4           5.0846    -0.5879   -10.1726 nu            1 LIG       -0.826900
      21 H1          13.3898     2.0135    -7.7910 ha            1 LIG        0.166000
      22 H2           9.5121     3.5496   -10.3660 ha            1 LIG        0.164000
      23 H3          13.9467     5.9177    -9.5179 ha            1 LIG        0.160000
      24 H4          12.3091     5.2332   -11.4889 ha            1 LIG        0.188000
      25 H5           7.3182     2.8927    -9.1795 h4            1 LIG        0.036100
      26 H6           4.5827    -0.1497    -9.4108 hn            1 LIG        0.441800
      27 F2          14.6286     4.2389    -7.6093 f             1 LIG       -0.133900
      28 C14          2.1610    -0.8625   -12.5832 c3            1 LIG        0.128900
      29 C15          3.3244    -0.2240   -11.8131 c3            1 LIG       -0.132400
      30 C16          4.1453    -1.2967   -11.1386 c3            1 LIG        0.221500
      31 C17          3.2288    -2.2903   -10.2971 c3            1 LIG       -0.132400
      32 C18          2.1002    -2.8059   -11.2471 c3            1 LIG        0.128900
      33 O3           1.3243    -1.6813   -11.7708 os            1 LIG       -0.412600
      34 H7           2.5079    -1.4686   -13.4292 h1            1 LIG        0.050950
      35 H8           1.5312    -0.0425   -12.9499 h1            1 LIG        0.050950
      36 H9           2.9586     0.4599   -11.0373 hc            1 LIG        0.061450
      37 H10          4.0024     0.4010   -12.4073 hc            1 LIG        0.061450
      38 H11          4.6574    -1.9000   -11.8984 h1            1 LIG        0.081700
      39 H12          3.8321    -3.1203    -9.9092 hc            1 LIG        0.061450
      40 H13          2.6965    -1.7940    -9.4763 hc            1 LIG        0.061450
      41 H14          2.4700    -3.4790   -12.0304 h1            1 LIG        0.050950
      42 H15          1.3641    -3.3589   -10.6507 h1            1 LIG        0.050950
      43 C19          8.4159    -0.5777   -13.8520 c3            1 LIG        0.075000
      44 H16          7.3504    -0.5544   -14.1120 h1            1 LIG        0.088700
      45 H17          8.9018    -0.3295   -14.8037 h1            1 LIG        0.088700
      46 C20          9.0110    -1.9701   -13.4048 c3            1 LIG       -0.069400
      47 H18         10.0574    -1.8706   -13.0909 hc            1 LIG        0.070200
      48 H19          8.5947    -2.3255   -12.4541 hc            1 LIG        0.070200
      49 C21          8.6680    -3.1029   -14.4147 c3            1 LIG       -0.313600
      50 H20          9.1028    -2.7256   -15.3485 h1            1 LIG        0.108200
      51 H21          7.6443    -3.4957   -14.4504 h1            1 LIG        0.108200
      52 S1           9.3840    -4.6955   -13.9868 s6            1 LIG        1.338000
      53 O4           8.6847    -5.1311   -12.7104 o             1 LIG       -0.646800
      54 O5          10.7873    -4.5838   -14.0846 o             1 LIG       -0.646800
      55 C22          8.7320    -5.6152   -15.2447 c3            1 LIG       -0.370300
      56 H22          8.8858    -5.0876   -16.1942 h1            1 LIG        0.116367
      57 H23          9.1945    -6.5998   -15.3860 h1            1 LIG        0.116367
      58 H24          7.6714    -5.6329   -14.9648 h1            1 LIG        0.116367
@<TRIPOS>BOND
       1       52       53 1
       2       52       54 1
       3       52       55 1
       4       49       52 1
       5       46       49 1
       6       43       46 1
       7       32       33 1
       8       31       32 1
       9       30       31 1
      10       29       30 1
      11       28       29 1
      12       28       33 1
      13       20       30 1
      14       18       43 1
      15       13       15 1
      16       12       15 1
      17       11       16 1
      18       10       18 1
      19       10       19 1
      20        9       13 1
      21        8        9 1
      22        7        8 1
      23        7       27 1
      24        6       12 1
      25        5        6 1
      26        5       10 1
      27        5       11 1
      28        4       16 1
      29        4       19 1
      30        4       20 1
      31        3       13 1
      32        3       14 1
      33        2       12 1
      34        2       17 1
      35        2       18 1
      36        1        3 1
      37        1        7 1
      38       55       56 1
      39       55       57 1
      40       55       58 1
      41       49       50 1
      42       49       51 1
      43       46       47 1
      44       46       48 1
      45       43       44 1
      46       43       45 1
      47       32       41 1
      48       32       42 1
      49       31       39 1
      50       31       40 1
      51       30       38 1
      52       29       36 1
      53       29       37 1
      54       28       34 1
      55       28       35 1
      56       20       26 1
      57       11       25 1
      58        9       24 1
      59        8       23 1
      60        6       22 1
      61        1       21 1
@<TRIPOS>SUBSTRUCTURE
       1 LIG             1 RESIDUE    0 **** ROOT      0
