@<TRIPOS>MOLECULE
LIG
59 63 1 0 1
SMALL
USER_CHARGES
@<TRIPOS>CRYSIN
   40.6431    40.6431    40.6431   109.4712   109.4712   109.4712  1  1
@<TRIPOS>ATOM
       1 C1          -0.3150    -2.8890   -16.0477 ca            1 LIG       -0.206000
       2 C2           0.2999    -4.2895   -10.3992 c             1 LIG        0.708700
       3 C3          -0.0330    -3.8574   -15.0629 ca            1 LIG        0.145900
       4 C4           4.9632    -4.0439    -9.6022 ca            1 LIG        0.930900
       5 C5           3.0185    -4.4475   -11.2669 ca            1 LIG       -0.427400
       6 C6           1.9430    -4.6167   -12.2584 cc            1 LIG        0.011800
       7 C7          -0.8275    -1.6514   -15.5822 ca            1 LIG        0.152900
       8 C8          -1.0292    -1.4210   -14.2441 ca            1 LIG       -0.175000
       9 C9          -0.8875    -2.4224   -13.2683 ca            1 LIG       -0.075000
      10 C10          2.7105    -4.2267    -9.9476 ca            1 LIG        0.629200
      11 C11          4.3499    -4.5074   -11.6907 ca            1 LIG        0.523200
      12 C12          0.6217    -4.5295   -11.8449 cd            1 LIG       -0.055100
      13 C13         -0.4530    -3.7140   -13.7038 ca            1 LIG        0.029100
      14 F1           0.6125    -5.0391   -15.4352 f             1 LIG       -0.130900
      15 O1          -0.2902    -4.7126   -12.8348 os            1 LIG       -0.221200
      16 N1           5.3802    -4.2676   -10.8331 nb            1 LIG       -0.761000
      17 O2          -0.8698    -3.9081   -10.0984 o             1 LIG       -0.622500
      18 N2           1.3153    -4.1884    -9.5335 n             1 LIG       -0.422300
      19 N3           3.7446    -4.0711    -9.0998 nb            1 LIG       -0.818000
      20 N4           5.9385    -3.5824    -8.7952 nu            1 LIG       -0.825900
      21 H1          -0.1762    -3.1632   -17.0893 ha            1 LIG        0.167000
      22 H2           2.1816    -4.7780   -13.3034 ha            1 LIG        0.166000
      23 H3          -1.4983    -0.4702   -14.0091 ha            1 LIG        0.159000
      24 H4          -0.9957    -2.1848   -12.2142 ha            1 LIG        0.184000
      25 H5           4.6442    -4.8228   -12.6906 h4            1 LIG        0.036100
      26 H6           6.7155    -3.1901    -9.3115 hn            1 LIG        0.444800
      27 F2          -0.9833    -0.6239   -16.5073 f             1 LIG       -0.132900
      28 C14          5.2278    -0.7088    -6.3391 c3            1 LIG        0.120400
      29 C15          5.2580    -1.5102    -7.6186 c3            1 LIG       -0.127900
      30 C16          5.6922    -3.0036    -7.4675 c3            1 LIG        0.218500
      31 C17          6.9925    -3.0300    -6.6178 c3            1 LIG       -0.127900
      32 C18          6.8258    -2.1995    -5.2934 c3            1 LIG        0.120400
      33 O3           6.5209    -0.8571    -5.6962 os            1 LIG       -0.412600
      34 H7           4.3737    -0.9933    -5.7123 h1            1 LIG        0.063450
      35 H8           5.0746     0.3710    -6.4572 h1            1 LIG        0.063450
      36 H9           5.9803    -1.0807    -8.3237 hc            1 LIG        0.054950
      37 H10          4.2802    -1.4454    -8.1118 hc            1 LIG        0.054950
      38 H11          4.8533    -3.4010    -6.8830 h1            1 LIG        0.091700
      39 H12          7.2803    -3.9962    -6.1853 hc            1 LIG        0.054950
      40 H13          7.8646    -2.6842    -7.1864 hc            1 LIG        0.054950
      41 H14          5.9492    -2.6195    -4.7848 h1            1 LIG        0.063450
      42 H15          7.7310    -2.2293    -4.6745 h1            1 LIG        0.063450
      43 C19          0.4150    -2.2468    -6.2787 c3            1 LIG       -0.318600
      44 C20          1.2045    -2.4531    -7.5782 c3            1 LIG       -0.061900
      45 C21          1.0016    -3.9190    -8.0965 c3            1 LIG        0.091700
      46 C22          1.5460    -4.9856    -7.2000 c3            1 LIG       -0.061900
      47 C23          0.8181    -4.8757    -5.7397 c3            1 LIG       -0.318600
      48 H16         -0.6432    -2.4345    -6.4987 h1            1 LIG        0.121200
      49 H17          0.4393    -1.2316    -5.8638 h1            1 LIG        0.121200
      50 H18          2.2360    -2.0955    -7.4712 hc            1 LIG        0.075200
      51 H19          0.7745    -1.7278    -8.2799 hc            1 LIG        0.075200
      52 H20         -0.0761    -4.0609    -7.9485 h1            1 LIG        0.097700
      53 H21          1.1845    -5.9090    -7.6692 hc            1 LIG        0.075200
      54 H22          2.6348    -4.9593    -7.0686 hc            1 LIG        0.075200
      55 H23         -0.2632    -5.0448    -5.8141 h1            1 LIG        0.121200
      56 H24          1.3129    -5.5298    -5.0112 h1            1 LIG        0.121200
      57 S1           1.0709    -3.2687    -5.0037 s6            1 LIG        1.325000
      58 O4           2.5043    -3.0051    -4.8246 o             1 LIG       -0.653800
      59 O5           0.2230    -3.1584    -3.8352 o             1 LIG       -0.653800
@<TRIPOS>BOND
       1       57       58 1
       2       57       59 1
       3       47       57 1
       4       46       47 1
       5       45       46 1
       6       44       45 1
       7       43       44 1
       8       43       57 1
       9       32       33 1
      10       31       32 1
      11       30       31 1
      12       29       30 1
      13       28       29 1
      14       28       33 1
      15       20       30 1
      16       18       45 1
      17       13       15 1
      18       12       15 1
      19       11       16 1
      20       10       18 1
      21       10       19 1
      22        9       13 1
      23        8        9 1
      24        7        8 1
      25        7       27 1
      26        6       12 1
      27        5        6 1
      28        5       10 1
      29        5       11 1
      30        4       16 1
      31        4       19 1
      32        4       20 1
      33        3       13 1
      34        3       14 1
      35        2       12 1
      36        2       17 1
      37        2       18 1
      38        1        3 1
      39        1        7 1
      40       47       55 1
      41       47       56 1
      42       46       53 1
      43       46       54 1
      44       45       52 1
      45       44       50 1
      46       44       51 1
      47       43       48 1
      48       43       49 1
      49       32       41 1
      50       32       42 1
      51       31       39 1
      52       31       40 1
      53       30       38 1
      54       29       36 1
      55       29       37 1
      56       28       34 1
      57       28       35 1
      58       20       26 1
      59       11       25 1
      60        9       24 1
      61        8       23 1
      62        6       22 1
      63        1       21 1
@<TRIPOS>SUBSTRUCTURE
       1 LIG             1 RESIDUE    0 **** ROOT      0
