@<TRIPOS>MOLECULE
LIG
56 59 1 0 1
SMALL
USER_CHARGES
@<TRIPOS>CRYSIN
   40.6606    40.6606    40.6606   109.4712   109.4712   109.4712  1  1
@<TRIPOS>ATOM
       1 C1          -4.7024     5.1020    -5.8933 ca            1 LIG       -0.206000
       2 C2           1.2324     5.4421    -7.3011 c             1 LIG        0.713700
       3 C3          -3.2455     5.0563    -5.7187 ca            1 LIG        0.145900
       4 C4           2.2853     1.3030    -9.2332 ca            1 LIG        0.919900
       5 C5           0.4046     2.9219    -8.4264 ca            1 LIG       -0.417400
       6 C6          -0.5853     3.7689    -7.7292 cc            1 LIG        0.005800
       7 C7          -5.1962     5.6106    -7.0324 ca            1 LIG        0.151900
       8 C8          -4.3616     5.9682    -8.1412 ca            1 LIG       -0.175000
       9 C9          -2.9368     5.9992    -7.9961 ca            1 LIG       -0.076000
      10 C10          1.7332     3.3025    -8.4197 ca            1 LIG        0.626200
      11 C11          0.1396     1.6721    -8.9864 ca            1 LIG        0.521200
      12 C12         -0.1794     4.9872    -7.2481 cd            1 LIG       -0.047100
      13 C13         -2.4022     5.6077    -6.7457 ca            1 LIG        0.030100
      14 F1          -2.7138     4.6540    -4.5661 f             1 LIG       -0.130900
      15 O1          -1.0287     5.7247    -6.5128 os            1 LIG       -0.221200
      16 N1           1.0482     0.8433    -9.4216 nb            1 LIG       -0.761000
      17 O2           1.5177     6.5554    -6.9081 o             1 LIG       -0.637500
      18 N2           2.1138     4.5522    -7.8315 n             1 LIG       -0.410300
      19 N3           2.6558     2.5211    -8.8870 nb            1 LIG       -0.808000
      20 N4           3.2026     0.3751    -9.5730 nu            1 LIG       -0.821900
      21 H1          -5.3195     4.5459    -5.1938 ha            1 LIG        0.167000
      22 H2          -1.6538     3.5866    -7.7148 ha            1 LIG        0.164000
      23 H3          -4.8245     6.1912    -9.0979 ha            1 LIG        0.158000
      24 H4          -2.3089     6.5186    -8.7140 ha            1 LIG        0.184000
      25 H5          -0.8767     1.2852    -9.0442 h4            1 LIG        0.035100
      26 H6           2.7969    -0.4845    -9.9202 hn            1 LIG        0.438800
      27 F2          -6.5409     5.6213    -7.1120 f             1 LIG       -0.133900
      28 C14          6.9900    -0.3000   -10.3756 c3            1 LIG        0.127900
      29 C15          5.4278    -0.4836   -10.3546 c3            1 LIG       -0.133400
      30 C16          4.6556     0.6263    -9.5985 c3            1 LIG        0.216500
      31 C17          5.2336     0.7369    -8.1568 c3            1 LIG       -0.133400
      32 C18          6.8098     0.9660    -8.1924 c3            1 LIG        0.127900
      33 O3           7.3966    -0.1287    -8.9385 os            1 LIG       -0.412600
      34 H7           7.2553     0.5344   -11.0365 h1            1 LIG        0.052450
      35 H8           7.5475    -1.1513   -10.7853 h1            1 LIG        0.052450
      36 H9           5.3083    -1.4692    -9.8880 hc            1 LIG        0.061450
      37 H10          5.0169    -0.6470   -11.3585 hc            1 LIG        0.061450
      38 H11          4.8254     1.5742   -10.1239 h1            1 LIG        0.083700
      39 H12          4.7944     1.4677    -7.4666 hc            1 LIG        0.061450
      40 H13          5.1584    -0.2227    -7.6305 hc            1 LIG        0.061450
      41 H14          6.9939     1.9093    -8.7213 h1            1 LIG        0.052450
      42 H15          7.1722     0.9756    -7.1570 h1            1 LIG        0.052450
      43 C19          3.5762     4.7637    -7.4751 c3            1 LIG        0.054000
      44 H16          4.1761     3.9536    -7.9080 h1            1 LIG        0.079200
      45 H17          3.7940     5.7419    -7.9214 h1            1 LIG        0.079200
      46 C20          3.9353     4.8918    -5.9590 c3            1 LIG        0.143800
      47 O4           3.7791     6.3056    -5.5843 oh            1 LIG       -0.596800
      48 H18          3.0245     6.5946    -6.1263 ho            1 LIG        0.421000
      49 C21          5.3816     4.4046    -5.8079 c3            1 LIG       -0.104600
      50 H19          5.5067     3.3449    -6.0626 hc            1 LIG        0.045867
      51 H20          6.1516     5.0067    -6.3058 hc            1 LIG        0.045867
      52 H21          5.7754     4.4398    -4.7846 hc            1 LIG        0.045867
      53 C22          2.9903     4.0906    -5.0348 c3            1 LIG       -0.104600
      54 H22          1.9222     4.2963    -5.1771 hc            1 LIG        0.045867
      55 H23          2.9878     3.0264    -5.3010 hc            1 LIG        0.045867
      56 H24          3.1714     4.1268    -3.9535 hc            1 LIG        0.045867
@<TRIPOS>BOND
       1       46       47 1
       2       46       49 1
       3       46       53 1
       4       43       46 1
       5       32       33 1
       6       31       32 1
       7       30       31 1
       8       29       30 1
       9       28       29 1
      10       28       33 1
      11       20       30 1
      12       18       43 1
      13       13       15 1
      14       12       15 1
      15       11       16 1
      16       10       18 1
      17       10       19 1
      18        9       13 1
      19        8        9 1
      20        7        8 1
      21        7       27 1
      22        6       12 1
      23        5        6 1
      24        5       10 1
      25        5       11 1
      26        4       16 1
      27        4       19 1
      28        4       20 1
      29        3       13 1
      30        3       14 1
      31        2       12 1
      32        2       17 1
      33        2       18 1
      34        1        3 1
      35        1        7 1
      36       53       54 1
      37       53       55 1
      38       53       56 1
      39       49       50 1
      40       49       51 1
      41       49       52 1
      42       47       48 1
      43       43       44 1
      44       43       45 1
      45       32       41 1
      46       32       42 1
      47       31       39 1
      48       31       40 1
      49       30       38 1
      50       29       36 1
      51       29       37 1
      52       28       34 1
      53       28       35 1
      54       20       26 1
      55       11       25 1
      56        9       24 1
      57        8       23 1
      58        6       22 1
      59        1       21 1
@<TRIPOS>SUBSTRUCTURE
       1 LIG             1 RESIDUE    0 **** ROOT      0
