@<TRIPOS>MOLECULE
LIG
54 57 1 0 1
SMALL
USER_CHARGES
@<TRIPOS>CRYSIN
   40.7202    40.7202    40.7202   109.4712   109.4712   109.4712  1  1
@<TRIPOS>ATOM
       1 C1          12.0246     6.2569   -16.4686 ca            1 LIG       -0.206000
       2 C2           8.0835     6.5671   -14.6455 c             1 LIG        0.711700
       3 C3          10.7737     6.8912   -16.5885 ca            1 LIG        0.146900
       4 C4           3.6342     6.0364   -16.0920 ca            1 LIG        0.926900
       5 C5           5.7572     7.4590   -16.1357 ca            1 LIG       -0.419400
       6 C6           6.9476     8.3323   -16.2151 cc            1 LIG        0.010800
       7 C7          12.9708     6.7604   -15.5490 ca            1 LIG        0.151900
       8 C8          12.7023     7.9500   -14.8545 ca            1 LIG       -0.175000
       9 C9          11.4045     8.4750   -14.8310 ca            1 LIG       -0.076000
      10 C10          5.6535     6.3742   -15.2750 ca            1 LIG        0.625200
      11 C11          4.6208     7.8810   -16.8094 ca            1 LIG        0.523200
      12 C12          8.0303     7.8475   -15.4882 cd            1 LIG       -0.050100
      13 C13         10.3783     7.9364   -15.6196 ca            1 LIG        0.029100
      14 F1           9.8372     6.4334   -17.4220 f             1 LIG       -0.129900
      15 O1           9.2053     8.5321   -15.6093 os            1 LIG       -0.221200
      16 N1           3.5060     7.1458   -16.7747 nb            1 LIG       -0.760000
      17 O2           9.0700     6.2062   -14.0018 o             1 LIG       -0.637500
      18 N2           6.8399     5.9311   -14.6230 n             1 LIG       -0.418300
      19 N3           4.5745     5.5960   -15.3033 nb            1 LIG       -0.812000
      20 N4           2.5136     5.3222   -16.2921 nu            1 LIG       -0.825900
      21 H1          12.1907     5.4247   -17.1462 ha            1 LIG        0.167000
      22 H2           6.9455     9.2320   -16.8198 ha            1 LIG        0.165000
      23 H3          13.4247     8.4333   -14.2034 ha            1 LIG        0.158000
      24 H4          11.1941     9.3914   -14.2875 ha            1 LIG        0.183000
      25 H5           4.7010     8.8090   -17.3735 h4            1 LIG        0.036100
      26 H6           2.0091     5.6040   -17.1229 hn            1 LIG        0.443800
      27 F2          14.2010     6.2080   -15.5100 f             1 LIG       -0.132900
      28 C14          0.4823     2.1098   -15.8868 c3            1 LIG        0.127900
      29 C15          1.0399     3.3870   -16.5509 c3            1 LIG       -0.131900
      30 C16          2.1556     4.0585   -15.6811 c3            1 LIG        0.221500
      31 C17          1.5658     4.2236   -14.1791 c3            1 LIG       -0.131900
      32 C18          0.9910     2.8482   -13.6032 c3            1 LIG        0.127900
      33 O3          -0.0143     2.3363   -14.5768 os            1 LIG       -0.411600
      34 H7           1.1601     1.2503   -15.8139 h1            1 LIG        0.054200
      35 H8          -0.4090     1.7308   -16.4020 h1            1 LIG        0.054200
      36 H9           0.1647     4.0476   -16.5184 hc            1 LIG        0.061200
      37 H10          1.2355     3.2655   -17.6234 hc            1 LIG        0.061200
      38 H11          2.9889     3.3462   -15.6399 h1            1 LIG        0.081700
      39 H12          2.3658     4.7201   -13.6160 hc            1 LIG        0.061200
      40 H13          0.8288     5.0318   -14.0947 hc            1 LIG        0.061200
      41 H14          1.8243     2.1382   -13.6727 h1            1 LIG        0.054200
      42 H15          0.7437     2.7938   -12.5358 h1            1 LIG        0.054200
      43 C19          6.8231     4.7028   -13.8187 c3            1 LIG        0.055000
      44 H16          6.2642     3.9584   -14.3991 h1            1 LIG        0.082700
      45 H17          7.8152     4.2799   -13.6180 h1            1 LIG        0.082700
      46 C20          6.0791     4.7364   -12.4473 c3            1 LIG        0.083100
      47 O4           6.6429     5.7484   -11.5345 oh            1 LIG       -0.602800
      48 H18          5.8865     6.3287   -11.3401 ho            1 LIG        0.421000
      49 C21          6.2395     3.3889   -11.7763 c3            1 LIG        0.104400
      50 H19          7.2432     3.3075   -11.3411 h1            1 LIG        0.047200
      51 H20          6.0033     2.6402   -12.5425 h1            1 LIG        0.047200
      52 H21          4.9978     4.8508   -12.5923 h1            1 LIG        0.095700
      53 O5           5.3510     3.3347   -10.6013 oh            1 LIG       -0.595800
      54 H22          5.9172     3.4675    -9.8213 ho            1 LIG        0.417000
@<TRIPOS>BOND
       1       49       53 1
       2       46       47 1
       3       46       49 1
       4       43       46 1
       5       32       33 1
       6       31       32 1
       7       30       31 1
       8       29       30 1
       9       28       29 1
      10       28       33 1
      11       20       30 1
      12       18       43 1
      13       13       15 1
      14       12       15 1
      15       11       16 1
      16       10       18 1
      17       10       19 1
      18        9       13 1
      19        8        9 1
      20        7        8 1
      21        7       27 1
      22        6       12 1
      23        5        6 1
      24        5       10 1
      25        5       11 1
      26        4       16 1
      27        4       19 1
      28        4       20 1
      29        3       13 1
      30        3       14 1
      31        2       12 1
      32        2       17 1
      33        2       18 1
      34        1        3 1
      35        1        7 1
      36       53       54 1
      37       49       50 1
      38       49       51 1
      39       47       48 1
      40       46       52 1
      41       43       44 1
      42       43       45 1
      43       32       41 1
      44       32       42 1
      45       31       39 1
      46       31       40 1
      47       30       38 1
      48       29       36 1
      49       29       37 1
      50       28       34 1
      51       28       35 1
      52       20       26 1
      53       11       25 1
      54        9       24 1
      55        8       23 1
      56        6       22 1
      57        1       21 1
@<TRIPOS>SUBSTRUCTURE
       1 LIG             1 RESIDUE    0 **** ROOT      0
