@<TRIPOS>MOLECULE
LIG
47 50 1 0 1
SMALL
USER_CHARGES
@<TRIPOS>CRYSIN
   40.4105    40.4105    40.4105   109.4712   109.4712   109.4712  1  1
@<TRIPOS>ATOM
       1 C1          13.1171     4.8609   -17.2993 ca            1 LIG       -0.206000
       2 C2           9.7449     3.1074   -14.0399 c             1 LIG        0.711700
       3 C3          12.3247     4.3727   -16.2694 ca            1 LIG        0.146900
       4 C4           8.7251    -1.0533   -15.8782 ca            1 LIG        0.928900
       5 C5          10.6086     0.6926   -15.2146 ca            1 LIG       -0.418400
       6 C6          11.6092     1.6171   -14.7976 cc            1 LIG        0.011800
       7 C7          14.4933     5.0001   -17.1538 ca            1 LIG        0.152900
       8 C8          15.0771     4.8822   -15.9174 ca            1 LIG       -0.175000
       9 C9          14.2816     4.3136   -14.8644 ca            1 LIG       -0.075000
      10 C10          9.3115     0.9090   -14.8955 ca            1 LIG        0.621200
      11 C11         10.8662    -0.4657   -15.9144 ca            1 LIG        0.524200
      12 C12         11.1693     2.7634   -14.1831 cd            1 LIG       -0.051100
      13 C13         12.9351     4.1469   -15.0076 ca            1 LIG        0.028100
      14 F1          11.0186     4.3900   -16.4297 f             1 LIG       -0.130900
      15 O1          12.1664     3.7248   -13.9287 os            1 LIG       -0.221200
      16 N1           9.9734    -1.4119   -16.1800 nb            1 LIG       -0.759000
      17 O2           9.2953     4.2062   -13.7438 o             1 LIG       -0.615500
      18 N2           8.8688     2.1169   -14.3372 n             1 LIG       -0.432300
      19 N3           8.3977     0.0913   -15.3367 nb            1 LIG       -0.807000
      20 N4           7.6934    -1.9555   -16.0131 nu            1 LIG       -0.822900
      21 H1          12.6438     5.1580   -18.2305 ha            1 LIG        0.167000
      22 H2          12.6662     1.5902   -15.0367 ha            1 LIG        0.167000
      23 H3          16.1482     5.0401   -15.8324 ha            1 LIG        0.159000
      24 H4          14.8115     4.0628   -13.9503 ha            1 LIG        0.184000
      25 H5          11.7765    -0.6347   -16.4877 h4            1 LIG        0.037100
      26 H6           7.9332    -2.7293   -16.6196 hn            1 LIG        0.443800
      27 F2          15.2304     5.2698   -18.2944 f             1 LIG       -0.132900
      28 C14          4.1674    -2.9835   -14.9658 c3            1 LIG        0.128400
      29 C15          5.7058    -2.9337   -15.0229 c3            1 LIG       -0.131900
      30 C16          6.2715    -1.7524   -15.7420 c3            1 LIG        0.219500
      31 C17          5.4825    -1.3882   -16.9810 c3            1 LIG       -0.131900
      32 C18          3.9728    -1.5465   -16.7891 c3            1 LIG        0.128400
      33 O3           3.6429    -2.8387   -16.3373 os            1 LIG       -0.413600
      34 H7           3.7985    -2.1347   -14.3768 h1            1 LIG        0.054450
      35 H8           3.7020    -3.8247   -14.4375 h1            1 LIG        0.054450
      36 H9           6.0796    -3.9208   -15.3217 hc            1 LIG        0.061950
      37 H10          6.1179    -2.8217   -14.0124 hc            1 LIG        0.061950
      38 H11          6.1540    -0.8481   -15.1323 h1            1 LIG        0.083700
      39 H12          5.7760    -0.4099   -17.3814 hc            1 LIG        0.061950
      40 H13          5.6995    -1.9892   -17.8727 hc            1 LIG        0.061950
      41 H14          3.6258    -0.8109   -16.0529 h1            1 LIG        0.054450
      42 H15          3.4242    -1.4022   -17.7281 h1            1 LIG        0.054450
      43 C19          7.4122     2.3447   -14.0338 c3            1 LIG        0.152100
      44 H16          7.0279     1.5169   -13.4252 h1            1 LIG        0.107700
      45 H17          7.2622     3.2725   -13.4680 h1            1 LIG        0.107700
      46 C20          6.6134     2.4741   -15.3428 c1            1 LIG        0.204700
      47 N5           5.9555     2.6949   -16.3022 n1            1 LIG       -0.358800
@<TRIPOS>BOND
       1       46       47 1
       2       43       46 1
       3       32       33 1
       4       31       32 1
       5       30       31 1
       6       29       30 1
       7       28       29 1
       8       28       33 1
       9       20       30 1
      10       18       43 1
      11       13       15 1
      12       12       15 1
      13       11       16 1
      14       10       18 1
      15       10       19 1
      16        9       13 1
      17        8        9 1
      18        7        8 1
      19        7       27 1
      20        6       12 1
      21        5        6 1
      22        5       10 1
      23        5       11 1
      24        4       16 1
      25        4       19 1
      26        4       20 1
      27        3       13 1
      28        3       14 1
      29        2       12 1
      30        2       17 1
      31        2       18 1
      32        1        3 1
      33        1        7 1
      34       43       44 1
      35       43       45 1
      36       32       41 1
      37       32       42 1
      38       31       39 1
      39       31       40 1
      40       30       38 1
      41       29       36 1
      42       29       37 1
      43       28       34 1
      44       28       35 1
      45       20       26 1
      46       11       25 1
      47        9       24 1
      48        8       23 1
      49        6       22 1
      50        1       21 1
@<TRIPOS>SUBSTRUCTURE
       1 LIG             1 RESIDUE    0 **** ROOT      0
