@<TRIPOS>MOLECULE
LIG
64 68 1 0 1
SMALL
USER_CHARGES
@<TRIPOS>CRYSIN
   40.9809    40.9809    40.9809   109.4712   109.4712   109.4712  1  1
@<TRIPOS>ATOM
       1 C1           6.1331     9.7025   -14.6269 ca            1 LIG       -0.206000
       2 C2           5.6899     4.3701   -17.1687 c             1 LIG        0.704700
       3 C3           6.5815     8.5523   -15.3272 ca            1 LIG        0.145900
       4 C4           4.4960     1.5507   -13.6341 ca            1 LIG        0.915900
       5 C5           5.3451     3.9073   -14.4078 ca            1 LIG       -0.418400
       6 C6           5.7482     5.2690   -14.7942 cc            1 LIG        0.003800
       7 C7           4.7580     9.9458   -14.5079 ca            1 LIG        0.152900
       8 C8           3.8782     9.0773   -15.2032 ca            1 LIG       -0.175000
       9 C9           4.3259     8.0638   -16.0809 ca            1 LIG       -0.074000
      10 C10          5.2265     2.8230   -15.3301 ca            1 LIG        0.627200
      11 C11          5.0844     3.6099   -13.1032 ca            1 LIG        0.520200
      12 C12          5.9253     5.4855   -16.1839 cd            1 LIG       -0.048100
      13 C13          5.6824     7.7721   -16.0959 ca            1 LIG        0.028100
      14 F1           7.8284     8.3165   -15.3356 f             1 LIG       -0.130900
      15 O1           6.1700     6.7092   -16.7334 os            1 LIG       -0.222200
      16 N1           4.5106     2.4805   -12.7139 nb            1 LIG       -0.759000
      17 O2           5.8046     4.5274   -18.3705 o             1 LIG       -0.618500
      18 N2           5.3107     3.1129   -16.7164 n             1 LIG       -0.421300
      19 N3           4.9245     1.6242   -14.8695 nb            1 LIG       -0.809000
      20 N4           3.9549     0.3971   -13.2374 nu            1 LIG       -0.818900
      21 H1           6.8066    10.3466   -14.0693 ha            1 LIG        0.167000
      22 H2           5.9081     6.0698   -14.0813 ha            1 LIG        0.166000
      23 H3           2.8182     9.1760   -14.9886 ha            1 LIG        0.159000
      24 H4           3.6220     7.3394   -16.4797 ha            1 LIG        0.185000
      25 H5           5.0607     4.3743   -12.3279 h4            1 LIG        0.037100
      26 H6           3.7011     0.4734   -12.2607 hn            1 LIG        0.437800
      27 F2           4.2780    10.9554   -13.8045 f             1 LIG       -0.132900
      28 C14          0.6293    -1.4277   -13.8820 c3            1 LIG        0.125900
      29 C15          1.6926    -0.5622   -13.1048 c3            1 LIG       -0.133400
      30 C16          2.9750    -0.3170   -14.0187 c3            1 LIG        0.215500
      31 C17          3.5240    -1.6031   -14.4425 c3            1 LIG       -0.133400
      32 C18          2.4871    -2.4668   -15.2410 c3            1 LIG        0.125900
      33 O3           1.3395    -2.6139   -14.3991 os            1 LIG       -0.409600
      34 H7           0.0213    -0.8141   -14.5581 h1            1 LIG        0.052700
      35 H8          -0.1053    -1.7285   -13.1249 h1            1 LIG        0.052700
      36 H9           2.0904    -1.0185   -12.1900 hc            1 LIG        0.062200
      37 H10          1.2106     0.3519   -12.7365 hc            1 LIG        0.062200
      38 H11          2.5885     0.2478   -14.8760 h1            1 LIG        0.077700
      39 H12          4.3807    -1.4565   -15.1118 hc            1 LIG        0.062200
      40 H13          3.9153    -2.1102   -13.5519 hc            1 LIG        0.062200
      41 H14          2.2080    -2.0998   -16.2364 h1            1 LIG        0.052700
      42 H15          2.9648    -3.4224   -15.4901 h1            1 LIG        0.052700
      43 C19          3.3023     0.4348   -18.9429 c3            1 LIG        0.221300
      44 C20          3.5105     1.5052   -17.8941 c3            1 LIG       -0.104900
      45 C21          4.9386     1.9858   -17.8133 c3            1 LIG        0.099700
      46 C22          5.9141     0.7889   -17.6991 c3            1 LIG       -0.104900
      47 C23          5.6567    -0.3374   -18.7002 c3            1 LIG        0.221300
      48 H16          3.3588     0.8927   -19.9381 h1            1 LIG        0.062200
      49 H17          2.2987     0.0279   -18.7677 h1            1 LIG        0.062200
      50 H18          3.2719     1.0612   -16.9198 hc            1 LIG        0.064700
      51 H19          2.8384     2.3704   -17.9506 hc            1 LIG        0.064700
      52 H20          5.0771     2.3128   -18.8513 h1            1 LIG        0.099700
      53 H21          6.9655     1.1013   -17.7182 hc            1 LIG        0.064700
      54 H22          5.8371     0.2539   -16.7445 hc            1 LIG        0.064700
      55 H23          6.0588    -0.1711   -19.7072 h1            1 LIG        0.062200
      56 H24          6.1738    -1.2779   -18.4733 h1            1 LIG        0.062200
      57 N5           4.2499    -0.7078   -18.7353 n3            1 LIG       -0.819500
      58 S1           3.9417    -1.9323   -19.8510 s6            1 LIG        1.457900
      59 O4           4.7496    -1.7193   -20.9892 o             1 LIG       -0.649300
      60 O5           2.5088    -1.8333   -20.1075 o             1 LIG       -0.649300
      61 C24          4.3800    -3.3385   -18.9517 c3            1 LIG       -0.376300
      62 H25          3.8685    -3.2862   -17.9826 h1            1 LIG        0.116033
      63 H26          4.1622    -4.1902   -19.6078 h1            1 LIG        0.116033
      64 H27          5.4295    -3.2915   -18.6358 h1            1 LIG        0.116033
@<TRIPOS>BOND
       1       58       59 1
       2       58       60 1
       3       58       61 1
       4       57       58 1
       5       47       57 1
       6       46       47 1
       7       45       46 1
       8       44       45 1
       9       43       44 1
      10       43       57 1
      11       32       33 1
      12       31       32 1
      13       30       31 1
      14       29       30 1
      15       28       29 1
      16       28       33 1
      17       20       30 1
      18       18       45 1
      19       13       15 1
      20       12       15 1
      21       11       16 1
      22       10       18 1
      23       10       19 1
      24        9       13 1
      25        8        9 1
      26        7        8 1
      27        7       27 1
      28        6       12 1
      29        5        6 1
      30        5       10 1
      31        5       11 1
      32        4       16 1
      33        4       19 1
      34        4       20 1
      35        3       13 1
      36        3       14 1
      37        2       12 1
      38        2       17 1
      39        2       18 1
      40        1        3 1
      41        1        7 1
      42       61       62 1
      43       61       63 1
      44       61       64 1
      45       47       55 1
      46       47       56 1
      47       46       53 1
      48       46       54 1
      49       45       52 1
      50       44       50 1
      51       44       51 1
      52       43       48 1
      53       43       49 1
      54       32       41 1
      55       32       42 1
      56       31       39 1
      57       31       40 1
      58       30       38 1
      59       29       36 1
      60       29       37 1
      61       28       34 1
      62       28       35 1
      63       20       26 1
      64       11       25 1
      65        9       24 1
      66        8       23 1
      67        6       22 1
      68        1       21 1
@<TRIPOS>SUBSTRUCTURE
       1 LIG             1 RESIDUE    0 **** ROOT      0
