@<TRIPOS>MOLECULE
LIG
35 37 1 0 1
SMALL
USER_CHARGES
@<TRIPOS>CRYSIN
   37.6268    37.6268    37.6268   109.4712   109.4712   109.4712  1  1
@<TRIPOS>ATOM
       1 C1           5.3537    -2.3016    -7.6701 ca            1 LIG       -0.184000
       2 C2           9.5083    -5.0716    -7.3033 c             1 LIG        0.698700
       3 C3           6.3288    -2.9315    -8.4213 ca            1 LIG        0.145900
       4 C4          14.0878    -5.4610    -6.8928 ca            1 LIG        0.927900
       5 C5          15.3273    -7.0241    -5.3155 c3            1 LIG        0.210100
       6 C6          12.0623    -4.2482    -8.0490 ca            1 LIG       -0.430400
       7 C7          10.9466    -3.5390    -8.6163 cc            1 LIG        0.007800
       8 C8           5.7254    -1.4084    -6.6570 ca            1 LIG        0.125900
       9 C9           7.0802    -1.3007    -6.3204 ca            1 LIG       -0.151000
      10 C10          8.0980    -2.0466    -6.9904 ca            1 LIG       -0.135000
      11 C11         11.9069    -5.2679    -7.0994 ca            1 LIG        0.625200
      12 C12         13.3879    -3.9414    -8.3411 ca            1 LIG        0.524200
      13 C13          9.7326    -4.0516    -8.2725 cd            1 LIG       -0.058100
      14 C14          7.6875    -2.8182    -8.1199 ca            1 LIG        0.074100
      15 C15         10.3594    -6.7165    -5.7058 c3            1 LIG        0.070300
      16 F1           5.8696    -3.6880    -9.4474 f             1 LIG       -0.117900
      17 O1           8.5852    -3.5638    -8.8373 os            1 LIG       -0.210200
      18 N1          14.3844    -4.5922    -7.7883 nb            1 LIG       -0.766000
      19 O2           8.3703    -5.4247    -7.0502 o             1 LIG       -0.596500
      20 N2          10.6169    -5.6703    -6.7535 n             1 LIG       -0.424300
      21 N3          12.9230    -5.8474    -6.4908 nb            1 LIG       -0.809000
      22 N4          15.1868    -5.9790    -6.3443 nu            1 LIG       -0.848900
      23 H1           4.3028    -2.3948    -7.9278 ha            1 LIG        0.167000
      24 H2          16.3507    -7.3918    -5.1716 h1            1 LIG        0.049033
      25 H3          11.0120    -2.7890    -9.3963 ha            1 LIG        0.158000
      26 H4           7.3847    -0.6020    -5.5467 ha            1 LIG        0.154000
      27 H5           9.1317    -2.0830    -6.6592 ha            1 LIG        0.151000
      28 H6          13.6238    -3.1965    -9.0997 h4            1 LIG        0.033100
      29 H7          10.9316    -7.5922    -6.0360 h1            1 LIG        0.064700
      30 H8          10.8773    -6.4060    -4.7899 h1            1 LIG        0.064700
      31 H9           9.2993    -6.9918    -5.6456 h1            1 LIG        0.064700
      32 H10         16.0137    -5.6914    -6.8519 hn            1 LIG        0.454800
      33 F2           4.7739    -0.9187    -5.8796 f             1 LIG       -0.136900
      34 H11         14.8634    -6.6046    -4.4142 h1            1 LIG        0.049033
      35 H12         14.7175    -7.9090    -5.5356 h1            1 LIG        0.049033
@<TRIPOS>BOND
       1       15       20 1
       2       14       17 1
       3       13       17 1
       4       12       18 1
       5       11       20 1
       6       11       21 1
       7       10       14 1
       8        9       10 1
       9        8        9 1
      10        8       33 1
      11        7       13 1
      12        6        7 1
      13        6       11 1
      14        6       12 1
      15        5       22 1
      16        4       18 1
      17        4       21 1
      18        4       22 1
      19        3       14 1
      20        3       16 1
      21        2       13 1
      22        2       19 1
      23        2       20 1
      24        1        3 1
      25        1        8 1
      26       22       32 1
      27       15       29 1
      28       15       30 1
      29       15       31 1
      30       12       28 1
      31       10       27 1
      32        9       26 1
      33        7       25 1
      34        5       24 1
      35        5       34 1
      36        5       35 1
      37        1       23 1
@<TRIPOS>SUBSTRUCTURE
       1 LIG             1 RESIDUE    0 **** ROOT      0
