@<TRIPOS>MOLECULE
LIG
43 46 1 0 1
SMALL
USER_CHARGES
@<TRIPOS>CRYSIN
   79.4440    76.2684    92.6965    90.0000    90.0000    90.0000  1  1
@<TRIPOS>ATOM
       1 C5          44.4870    31.6071    58.0197 ca            1 LIG       -0.206000
       2 C6          39.6669    30.3163    56.1941 c             1 LIG        0.704700
       3 C7          43.2884    31.2959    57.4128 ca            1 LIG        0.145900
       4 C8          36.8769    32.1720    59.4537 ca            1 LIG        0.924900
       5 C10         39.1057    32.3802    58.0110 ca            1 LIG       -0.419400
       6 C11         40.2383    32.5548    57.1020 cc            1 LIG        0.004800
       7 C12         45.3125    32.5189    57.4015 ca            1 LIG        0.150900
       8 C13         44.9249    33.2185    56.2722 ca            1 LIG       -0.175000
       9 C14         43.7321    32.8117    55.6065 ca            1 LIG       -0.075000
      10 C15         38.2261    31.2824    57.9216 ca            1 LIG        0.620200
      11 C16         38.7141    33.3854    58.9170 ca            1 LIG        0.522200
      12 C17         40.5115    31.5090    56.2998 cd            1 LIG       -0.050100
      13 C18         42.9065    31.8773    56.2124 ca            1 LIG        0.030100
      14 C19         37.7356    28.9826    57.0560 c3            1 LIG        0.067300
      15 F1          42.6027    30.3163    58.0287 f             1 LIG       -0.130900
      16 O2          41.6403    31.5680    55.5971 os            1 LIG       -0.223200
      17 N1          37.6000    33.2710    59.6308 nb            1 LIG       -0.766000
      18 O3          39.9732    29.4083    55.4294 o             1 LIG       -0.618500
      19 N2          38.6375    30.2196    57.0546 n             1 LIG       -0.421300
      20 N3          37.0975    31.1611    58.6270 nb            1 LIG       -0.801000
      21 N4          35.7432    32.1541    60.2617 nu            1 LIG       -0.842900
      22 H9          44.8213    31.1261    58.9342 ha            1 LIG        0.166000
      23 H11         40.8481    33.4413    57.2334 ha            1 LIG        0.164000
      24 H12         45.6241    33.9054    55.8044 ha            1 LIG        0.158000
      25 H13         43.3705    33.3289    54.7227 ha            1 LIG        0.186000
      26 H14         39.2888    34.3103    58.9284 h4            1 LIG        0.035100
      27 H15         36.7065    29.2688    57.3060 h1            1 LIG        0.065700
      28 H16         37.7179    28.5824    56.0348 h1            1 LIG        0.065700
      29 H17         38.1008    28.2492    57.7855 h1            1 LIG        0.065700
      30 H18         35.5789    33.1128    60.5410 hn            1 LIG        0.452800
      31 F2          46.5101    32.7482    58.0290 f             1 LIG       -0.133900
      32 OW1         32.8427    30.2279    61.2228 os            1 LIG       -0.417600
      33 CW1         33.8788    29.2282    61.3948 c3            1 LIG        0.129400
      34 CW2         34.9807    29.7415    60.5395 c3            1 LIG       -0.110400
      35 CW3         34.6043    31.2199    60.1885 c3            1 LIG        0.214500
      36 CW4         33.5262    31.4953    61.1021 c3            1 LIG        0.108400
      37 HW1         33.5588    28.2220    61.0974 h1            1 LIG        0.051700
      38 HW2         34.1923    29.2072    62.4459 h1            1 LIG        0.051700
      39 HW3         35.9917    29.6964    60.9629 hc            1 LIG        0.065200
      40 HW4         34.8990    29.1403    59.6255 hc            1 LIG        0.065200
      41 HW5         34.0203    31.3514    59.2692 h1            1 LIG        0.063700
      42 HW6         32.8574    32.3225    60.8338 h1            1 LIG        0.055700
      43 HW7         33.9927    31.7515    62.0613 h1            1 LIG        0.055700
@<TRIPOS>BOND
       1       35       36 1
       2       34       35 1
       3       33       34 1
       4       32       33 1
       5       32       36 1
       6       21       35 1
       7       14       19 1
       8       13       16 1
       9       12       16 1
      10       11       17 1
      11       10       19 1
      12       10       20 1
      13        9       13 1
      14        8        9 1
      15        7        8 1
      16        7       31 1
      17        6       12 1
      18        5        6 1
      19        5       10 1
      20        5       11 1
      21        4       17 1
      22        4       20 1
      23        4       21 1
      24        3       13 1
      25        3       15 1
      26        2       12 1
      27        2       18 1
      28        2       19 1
      29        1        3 1
      30        1        7 1
      31       36       42 1
      32       36       43 1
      33       35       41 1
      34       34       39 1
      35       34       40 1
      36       33       37 1
      37       33       38 1
      38       21       30 1
      39       14       27 1
      40       14       28 1
      41       14       29 1
      42       11       26 1
      43        9       25 1
      44        8       24 1
      45        6       23 1
      46        1       22 1
@<TRIPOS>SUBSTRUCTURE
       1 LIG             1 RESIDUE    0 **** ROOT      0
