@<TRIPOS>MOLECULE
LIG
43 46 1 0 1
SMALL
USER_CHARGES
@<TRIPOS>CRYSIN
   39.3398    39.3398    39.3398   109.4712   109.4712   109.4712  1  1
@<TRIPOS>ATOM
       1 C1           4.6601     4.9424   -17.2066 ca            1 LIG       -0.206000
       2 C2           2.3762     1.7616   -14.0597 c             1 LIG        0.704700
       3 C3           4.9588     4.1296   -16.1311 ca            1 LIG        0.145900
       4 C4           0.6079     0.5282    -9.9695 ca            1 LIG        0.924900
       5 C5           2.5154     1.8206   -11.2633 ca            1 LIG       -0.419400
       6 C6           3.5724     2.6110   -11.9656 cc            1 LIG        0.004800
       7 C7           3.5193     5.6913   -17.2015 ca            1 LIG        0.150900
       8 C8           2.6425     5.5711   -16.0896 ca            1 LIG       -0.175000
       9 C9           2.8866     4.7661   -14.9673 ca            1 LIG       -0.075000
      10 C10          1.5818     1.0033   -11.9313 ca            1 LIG        0.620200
      11 C11          2.4264     1.8180    -9.8866 ca            1 LIG        0.522200
      12 C12          3.3969     2.6050   -13.3185 cd            1 LIG       -0.050100
      13 C13          4.1281     4.0530   -15.0381 ca            1 LIG        0.030100
      14 C14          0.4610     0.1755   -14.0574 c3            1 LIG        0.067300
      15 F1           6.0626     3.3326   -16.2266 f             1 LIG       -0.130900
      16 O1           4.4369     3.1119   -14.0461 os            1 LIG       -0.223200
      17 N1           1.4363     1.1913    -9.2295 nb            1 LIG       -0.766000
      18 O2           2.3873     1.8060   -15.2788 o             1 LIG       -0.618500
      19 N2           1.4862     1.0065   -13.3558 n             1 LIG       -0.421300
      20 N3           0.6180     0.3407   -11.2641 nb            1 LIG       -0.801000
      21 N4          -0.4067     0.0990    -9.2720 nu            1 LIG       -0.842900
      22 H1           5.3196     4.9875   -18.0682 ha            1 LIG        0.166000
      23 H2           4.4369     3.0867   -11.5167 ha            1 LIG        0.164000
      24 H3           1.7114     6.1295   -16.1166 ha            1 LIG        0.158000
      25 H4           2.0974     4.6482   -14.2307 ha            1 LIG        0.186000
      26 H5           3.1244     2.3489    -9.2408 h4            1 LIG        0.035100
      27 H6           0.2892     0.6542   -15.0294 h1            1 LIG        0.065700
      28 H7           0.9557    -0.7761   -14.2877 h1            1 LIG        0.065700
      29 H8          -0.4534     0.0644   -13.4615 h1            1 LIG        0.065700
      30 H9          -0.2737     0.1455    -8.2698 hn            1 LIG        0.452800
      31 F2           3.1423     6.4187   -18.2752 f             1 LIG       -0.133900
      32 O3          -3.4669    -1.0047   -10.3197 os            1 LIG       -0.417600
      33 C15         -3.3305    -1.0934    -8.8951 c3            1 LIG        0.129400
      34 C16         -2.0011    -1.6797    -8.6084 c3            1 LIG       -0.110400
      35 C17         -1.1937    -1.0692    -9.7463 c3            1 LIG        0.214500
      36 C18         -2.1868    -0.7102   -10.8309 c3            1 LIG        0.108400
      37 H10         -4.0903    -1.7062    -8.3944 h1            1 LIG        0.051700
      38 H11         -3.4077    -0.0690    -8.5105 h1            1 LIG        0.051700
      39 H12         -1.6332    -1.5109    -7.5888 hc            1 LIG        0.065200
      40 H13         -2.1592    -2.7632    -8.6755 hc            1 LIG        0.065200
      41 H14         -0.4902    -1.8472   -10.0675 h1            1 LIG        0.063700
      42 H15         -2.1073    -1.2767   -11.7670 h1            1 LIG        0.055700
      43 H16         -2.1249     0.3574   -11.0755 h1            1 LIG        0.055700
@<TRIPOS>BOND
       1       35       36 1
       2       34       35 1
       3       33       34 1
       4       32       33 1
       5       32       36 1
       6       21       35 1
       7       14       19 1
       8       13       16 1
       9       12       16 1
      10       11       17 1
      11       10       19 1
      12       10       20 1
      13        9       13 1
      14        8        9 1
      15        7        8 1
      16        7       31 1
      17        6       12 1
      18        5        6 1
      19        5       10 1
      20        5       11 1
      21        4       17 1
      22        4       20 1
      23        4       21 1
      24        3       13 1
      25        3       15 1
      26        2       12 1
      27        2       18 1
      28        2       19 1
      29        1        3 1
      30        1        7 1
      31       36       42 1
      32       36       43 1
      33       35       41 1
      34       34       39 1
      35       34       40 1
      36       33       37 1
      37       33       38 1
      38       21       30 1
      39       14       27 1
      40       14       28 1
      41       14       29 1
      42       11       26 1
      43        9       25 1
      44        8       24 1
      45        6       23 1
      46        1       22 1
@<TRIPOS>SUBSTRUCTURE
       1 LIG             1 RESIDUE    0 **** ROOT      0
