@<TRIPOS>MOLECULE
LIG
45 47 1 0 1
SMALL
USER_CHARGES
@<TRIPOS>CRYSIN
   40.4170    40.4170    40.4170   109.4712   109.4712   109.4712  1  1
@<TRIPOS>ATOM
       1 C1          12.1197    -1.4884   -15.6252 ca            1 LIG       -0.206000
       2 C2          10.0012    -4.5406   -11.0392 c             1 LIG        0.705700
       3 C3          12.3862    -2.2326   -14.4109 ca            1 LIG        0.145900
       4 C4           7.1524    -2.6258    -7.8563 ca            1 LIG        0.919900
       5 C5           5.0959    -3.5970    -6.8026 c3            1 LIG        0.219800
       6 C6           9.1700    -2.3266    -9.5054 ca            1 LIG       -0.422400
       7 C7          10.2403    -2.1119   -10.4955 cc            1 LIG        0.007800
       8 C8          10.9131    -0.9298   -15.8502 ca            1 LIG        0.149900
       9 C9           9.8756    -1.1114   -14.9802 ca            1 LIG       -0.175000
      10 C10         10.0935    -1.8755   -13.8762 ca            1 LIG       -0.076000
      11 C11          8.5418    -3.5531    -9.3450 ca            1 LIG        0.621200
      12 C12          8.6489    -1.2799    -8.7932 ca            1 LIG        0.521200
      13 C13         10.5914    -3.2097   -11.2697 cd            1 LIG       -0.054100
      14 C14         11.3649    -2.4251   -13.4558 ca            1 LIG        0.032100
      15 C15          8.3257    -5.9765    -9.9206 c3            1 LIG        0.071300
      16 F1          13.6819    -2.4140   -13.9874 f             1 LIG       -0.130900
      17 O1          11.6584    -3.0161   -12.2299 os            1 LIG       -0.223200
      18 N1           7.6445    -1.4133    -7.9617 nb            1 LIG       -0.758000
      19 O2          10.2881    -5.5233   -11.7158 o             1 LIG       -0.622500
      20 N2           8.9993    -4.6711   -10.0389 n             1 LIG       -0.423300
      21 N3           7.5830    -3.7049    -8.5412 nb            1 LIG       -0.809000
      22 N4           6.1673    -2.5969    -6.9430 nu            1 LIG       -0.819900
      23 H1          12.9692    -1.2880   -16.2714 ha            1 LIG        0.166000
      24 H2           5.0741    -4.2121    -5.8946 h1            1 LIG        0.063200
      25 H3          10.4855    -1.0938   -10.7754 ha            1 LIG        0.163000
      26 H4           8.9504    -0.5692   -15.1516 ha            1 LIG        0.158000
      27 H5           9.2017    -2.2512   -13.3833 ha            1 LIG        0.186000
      28 H6           9.0478    -0.2812    -8.9647 h4            1 LIG        0.034100
      29 H7           8.9051    -6.6376    -9.2643 h1            1 LIG        0.063367
      30 H8           7.2883    -5.8035    -9.6087 h1            1 LIG        0.063367
      31 H9           8.2275    -6.3874   -10.9331 h1            1 LIG        0.063367
      32 H10          6.1304    -1.7351    -6.4139 hn            1 LIG        0.455800
      33 F2          10.6332    -0.3062   -16.9588 f             1 LIG       -0.134900
      34 C16          3.7455    -2.8211    -6.9165 c3            1 LIG        0.136800
      35 H11          5.2254    -4.3576    -7.5824 h1            1 LIG        0.063200
      36 C17          3.3685    -2.2601    -5.5176 c3            1 LIG       -0.124100
      37 O3           3.7352    -1.7733    -7.8485 oh            1 LIG       -0.606800
      38 C18          2.5425    -3.7265    -7.3552 c3            1 LIG       -0.124100
      39 H12          4.2425    -1.0509    -7.4391 ho            1 LIG        0.409000
      40 H13          2.3794    -1.7861    -5.5359 hc            1 LIG        0.049033
      41 H14          3.2586    -3.1286    -4.8565 hc            1 LIG        0.049033
      42 H15          4.1055    -1.5472    -5.1277 hc            1 LIG        0.049033
      43 H16          2.5063    -3.9566    -8.4272 hc            1 LIG        0.049033
      44 H17          2.5718    -4.7054    -6.8608 hc            1 LIG        0.049033
      45 H18          1.5877    -3.2610    -7.0812 hc            1 LIG        0.049033
@<TRIPOS>BOND
       1       34       36 1
       2       34       37 1
       3       34       38 1
       4       15       20 1
       5       14       17 1
       6       13       17 1
       7       12       18 1
       8       11       20 1
       9       11       21 1
      10       10       14 1
      11        9       10 1
      12        8        9 1
      13        8       33 1
      14        7       13 1
      15        6        7 1
      16        6       11 1
      17        6       12 1
      18        5       22 1
      19        5       34 1
      20        4       18 1
      21        4       21 1
      22        4       22 1
      23        3       14 1
      24        3       16 1
      25        2       13 1
      26        2       19 1
      27        2       20 1
      28        1        3 1
      29        1        8 1
      30       38       43 1
      31       38       44 1
      32       38       45 1
      33       37       39 1
      34       36       40 1
      35       36       41 1
      36       36       42 1
      37       22       32 1
      38       15       29 1
      39       15       30 1
      40       15       31 1
      41       12       28 1
      42       10       27 1
      43        9       26 1
      44        7       25 1
      45        5       24 1
      46        5       35 1
      47        1       23 1
@<TRIPOS>SUBSTRUCTURE
       1 LIG             1 RESIDUE    0 **** ROOT      0
