@<TRIPOS>MOLECULE
LIG
45 47 1 0 1
SMALL
USER_CHARGES
@<TRIPOS>CRYSIN
   40.7047    40.7047    40.7047   109.4712   109.4712   109.4712  1  1
@<TRIPOS>ATOM
       1 C1          11.3503     2.4261   -10.8948 ca            1 LIG       -0.184000
       2 C2           6.9260     2.4331   -14.5603 c             1 LIG        0.698700
       3 C3          10.2528     2.4606   -11.8186 ca            1 LIG        0.145900
       4 C4           7.9811    -0.6899   -17.8808 ca            1 LIG        0.927900
       5 C5           6.7686    -1.1083   -19.9878 c3            1 LIG        0.244200
       6 C6           8.2059     0.0865   -15.3361 ca            1 LIG       -0.429400
       7 C7           8.4735     0.5681   -13.9630 cc            1 LIG        0.008800
       8 C8          11.1523     1.7612    -9.6539 ca            1 LIG        0.124900
       9 C9           9.8871     1.1912    -9.3703 ca            1 LIG       -0.151000
      10 C10          8.7887     1.3270   -10.1630 ca            1 LIG       -0.135000
      11 C11          7.4383     0.7392   -16.2374 ca            1 LIG        0.622200
      12 C12          8.8910    -1.0393   -15.8103 ca            1 LIG        0.521200
      13 C13          7.7186     1.7114   -13.5589 cd            1 LIG       -0.059100
      14 C14          8.9615     1.9677   -11.3904 ca            1 LIG        0.074100
      15 C15          5.8084     2.5743   -16.8121 c3            1 LIG        0.070300
      16 F1          10.3281     3.0815   -12.9445 f             1 LIG       -0.117900
      17 O1           7.7730     2.1679   -12.2000 os            1 LIG       -0.210200
      18 N1           8.7905    -1.3962   -17.0955 nb            1 LIG       -0.762000
      19 O2           6.4455     3.5119   -14.3771 o             1 LIG       -0.598500
      20 N2           6.7286     1.8178   -15.8059 n             1 LIG       -0.425300
      21 N3           7.3084     0.3544   -17.4878 nb            1 LIG       -0.808000
      22 N4           8.0459    -1.0165   -19.2122 nu            1 LIG       -0.816900
      23 H1          12.3050     2.8322   -11.2158 ha            1 LIG        0.167000
      24 C16          6.3544     0.3441   -20.3400 c3            1 LIG       -0.107600
      25 H2           9.2000     0.1018   -13.3074 ha            1 LIG        0.158000
      26 H3           9.6547     0.8258    -8.3743 ha            1 LIG        0.154000
      27 H4           7.7833     0.9838    -9.9375 ha            1 LIG        0.151000
      28 H5           9.4888    -1.7096   -15.1945 h4            1 LIG        0.032100
      29 H6           6.3622     2.9000   -17.7013 h1            1 LIG        0.063367
      30 H7           5.0553     1.8892   -17.2205 h1            1 LIG        0.063367
      31 H8           5.2815     3.4135   -16.3414 h1            1 LIG        0.063367
      32 H9           8.6526    -1.8181   -19.3281 hn            1 LIG        0.454800
      33 F2          12.1267     1.7500    -8.7958 f             1 LIG       -0.136900
      34 C17          7.0306    -1.9967   -21.1910 c3            1 LIG        0.116400
      35 C18          5.6093    -1.8058   -19.2436 c3            1 LIG       -0.107600
      36 O3           7.9657    -1.3469   -22.0883 oh            1 LIG       -0.609800
      37 H10          8.3702    -0.6018   -21.6108 ho            1 LIG        0.411000
      38 H11          7.4751    -2.9172   -20.7927 h1            1 LIG        0.038200
      39 H12          6.1304    -2.1740   -21.7922 h1            1 LIG        0.038200
      40 H13          5.9136    -2.7741   -18.8275 hc            1 LIG        0.051200
      41 H14          5.2681    -1.2757   -18.3458 hc            1 LIG        0.051200
      42 H15          4.7801    -2.1349   -19.8820 hc            1 LIG        0.051200
      43 H16          5.9113     0.7919   -19.4419 hc            1 LIG        0.051200
      44 H17          7.1960     0.9539   -20.6910 hc            1 LIG        0.051200
      45 H18          5.6232     0.2165   -21.1478 hc            1 LIG        0.051200
@<TRIPOS>BOND
       1       34       36 1
       2       15       20 1
       3       14       17 1
       4       13       17 1
       5       12       18 1
       6       11       20 1
       7       11       21 1
       8       10       14 1
       9        9       10 1
      10        8        9 1
      11        8       33 1
      12        7       13 1
      13        6        7 1
      14        6       11 1
      15        6       12 1
      16        5       22 1
      17        5       24 1
      18        5       34 1
      19        5       35 1
      20        4       18 1
      21        4       21 1
      22        4       22 1
      23        3       14 1
      24        3       16 1
      25        2       13 1
      26        2       19 1
      27        2       20 1
      28        1        3 1
      29        1        8 1
      30       36       37 1
      31       35       40 1
      32       35       41 1
      33       35       42 1
      34       34       38 1
      35       34       39 1
      36       24       43 1
      37       24       44 1
      38       24       45 1
      39       22       32 1
      40       15       29 1
      41       15       30 1
      42       15       31 1
      43       12       28 1
      44       10       27 1
      45        9       26 1
      46        7       25 1
      47        1       23 1
@<TRIPOS>SUBSTRUCTURE
       1 LIG             1 RESIDUE    0 **** ROOT      0
