@<TRIPOS>MOLECULE
LIG
46 49 1 0 1
SMALL
USER_CHARGES
@<TRIPOS>CRYSIN
   41.7257    41.7257    41.7257   109.4712   109.4712   109.4712  1  1
@<TRIPOS>ATOM
       1 F1           0.3297    12.4618   -14.3134 f             1 LIG       -0.133900
       2 C1           0.3859    11.0932   -14.6971 ca            1 LIG        0.151900
       3 C2          -0.1419    10.1362   -13.8680 ca            1 LIG       -0.175000
       4 C3          -0.1754     8.7251   -14.0876 ca            1 LIG       -0.075000
       5 C4           0.6419    10.6600   -16.0117 ca            1 LIG       -0.206000
       6 C5           0.4764     9.3174   -16.3802 ca            1 LIG        0.145900
       7 F2           0.8266     9.0147   -17.6418 f             1 LIG       -0.130900
       8 C6           0.0494     8.3134   -15.4174 ca            1 LIG        0.030100
       9 O1          -0.1064     7.0298   -15.9761 os            1 LIG       -0.223200
      10 C7          -0.3145     5.9172   -15.2280 cc            1 LIG       -0.050100
      11 C8          -1.4098     5.0254   -15.5466 c             1 LIG        0.705700
      12 O2          -2.2619     5.3475   -16.3620 o             1 LIG       -0.619500
      13 N1          -1.5299     3.9164   -14.7578 n             1 LIG       -0.423300
      14 C9          -2.5643     2.7767   -15.0693 c3            1 LIG        0.071300
      15 C10         -0.6463     3.5975   -13.7456 ca            1 LIG        0.622200
      16 N2          -0.8090     2.5051   -13.0419 nb            1 LIG       -0.819000
      17 C11          0.4338     5.7421   -14.1067 cd            1 LIG        0.004800
      18 C12          0.3260     4.4760   -13.4650 ca            1 LIG       -0.417400
      19 C13          1.1475     4.1709   -12.4394 ca            1 LIG        0.522200
      20 N3           1.1230     3.0388   -11.7840 nb            1 LIG       -0.751000
      21 C14          0.1056     2.3028   -12.1149 ca            1 LIG        0.929900
      22 N4           0.1764     1.0284   -11.6948 nu            1 LIG       -0.825900
      23 C15         -0.6857    -0.0845   -12.1844 c3            1 LIG        0.212500
      24 C16         -0.7577    -1.2007   -11.0485 c3            1 LIG       -0.109100
      25 C17         -0.2386    -0.7223   -13.4903 c3            1 LIG        0.031300
      26 N5           1.1448    -1.3026   -13.3812 na            1 LIG        0.194900
      27 N6           1.3575    -2.6661   -13.3154 nc            1 LIG       -0.496800
      28 C18          2.6399    -2.7401   -13.6482 cd            1 LIG        0.471900
      29 N7           3.1631    -1.5131   -13.8026 nd            1 LIG       -0.370000
      30 N8           2.1997    -0.5948   -13.6998 nc            1 LIG       -0.149800
      31 H1          -0.4887    10.5477   -12.9248 ha            1 LIG        0.158000
      32 H2          -0.6314     8.1123   -13.3156 ha            1 LIG        0.185000
      33 H3           0.8179    11.4039   -16.7831 ha            1 LIG        0.167000
      34 H4          -3.1811     2.5542   -14.1899 h1            1 LIG        0.062700
      35 H5          -3.2283     3.1229   -15.8709 h1            1 LIG        0.062700
      36 H6          -2.0001     1.9230   -15.4646 h1            1 LIG        0.062700
      37 H7           1.1568     6.4883   -13.7976 ha            1 LIG        0.165000
      38 H8           1.9344     4.8499   -12.1145 h4            1 LIG        0.036100
      39 H9           1.1074     0.8836   -11.3253 hn            1 LIG        0.452800
      40 H10         -1.6714     0.3880   -12.2766 h1            1 LIG        0.094700
      41 H11         -1.6052    -1.8890   -11.1553 hc            1 LIG        0.054033
      42 H12          0.1758    -1.7769   -11.0465 hc            1 LIG        0.054033
      43 H13         -0.8139    -0.8598   -10.0074 hc            1 LIG        0.054033
      44 H14         -0.9351    -1.5698   -13.4835 h1            1 LIG        0.091700
      45 H15         -0.3064    -0.1743   -14.4382 h1            1 LIG        0.091700
      46 H16          3.1475    -3.6857   -13.7861 h5            1 LIG        0.088100
@<TRIPOS>BOND
       1       29       30 1
       2       28       29 1
       3       27       28 1
       4       26       27 1
       5       26       30 1
       6       25       26 1
       7       23       24 1
       8       23       25 1
       9       22       23 1
      10       21       22 1
      11       20       21 1
      12       19       20 1
      13       18       19 1
      14       17       18 1
      15       16       21 1
      16       15       16 1
      17       15       18 1
      18       13       14 1
      19       13       15 1
      20       11       12 1
      21       11       13 1
      22       10       11 1
      23       10       17 1
      24        9       10 1
      25        8        9 1
      26        6        7 1
      27        6        8 1
      28        5        6 1
      29        4        8 1
      30        3        4 1
      31        2        3 1
      32        2        5 1
      33        1        2 1
      34       28       46 1
      35       25       44 1
      36       25       45 1
      37       24       41 1
      38       24       42 1
      39       24       43 1
      40       23       40 1
      41       22       39 1
      42       19       38 1
      43       17       37 1
      44       14       34 1
      45       14       35 1
      46       14       36 1
      47        5       33 1
      48        4       32 1
      49        3       31 1
@<TRIPOS>SUBSTRUCTURE
       1 LIG             1 RESIDUE    0 **** ROOT      0
