@<TRIPOS>MOLECULE
LIG
46 49 1 0 1
SMALL
USER_CHARGES
@<TRIPOS>CRYSIN
   40.1455    40.1455    40.1455   109.4712   109.4712   109.4712  1  1
@<TRIPOS>ATOM
       1 C1           6.8885     6.4240    -7.2540 ca            1 LIG        0.144900
       2 C2           7.8341     7.3982    -6.8644 ca            1 LIG       -0.207000
       3 C3           5.7355    -0.5357    -8.1530 c3            1 LIG        0.066300
       4 C4           9.1537     5.8621    -5.5416 ca            1 LIG       -0.174000
       5 C5           8.6324     2.4945   -10.7055 ca            1 LIG        0.520200
       6 C6           8.4946    -2.1121   -11.6947 c3            1 LIG        0.206500
       7 C7           9.3181    -2.5609   -10.4178 c3            1 LIG        0.034300
       8 C8           8.4006     0.4216   -11.2881 ca            1 LIG        0.931900
       9 C9           5.8861     1.8861    -7.5839 c             1 LIG        0.704700
      10 C10          6.6188     3.2068    -7.7071 cc            1 LIG       -0.049100
      11 C11          7.5372     3.5083    -8.7131 cd            1 LIG        0.002800
      12 C12          7.0259     5.1627    -6.5904 ca            1 LIG        0.031100
      13 C13          8.1246     4.8914    -5.7485 ca            1 LIG       -0.075000
      14 C14          7.7720     2.3456    -9.6137 ca            1 LIG       -0.419400
      15 C15          7.1572     1.1453    -9.5289 ca            1 LIG        0.622200
      16 N1           8.7920    -0.6726   -12.0343 nu            1 LIG       -0.831900
      17 C16          8.9583     7.0979    -6.1364 ca            1 LIG        0.150900
      18 F1           9.8479     8.1263    -6.0396 f             1 LIG       -0.133900
      19 F2           5.8363     6.6720    -8.0133 f             1 LIG       -0.130900
      20 O1           6.1269     4.1889    -6.8887 os            1 LIG       -0.223200
      21 O2           4.9852     1.7317    -6.7770 o             1 LIG       -0.617500
      22 N2           6.2684     0.8853    -8.4622 n             1 LIG       -0.418300
      23 N3           7.4664     0.0940   -10.3372 nb            1 LIG       -0.811000
      24 N4           8.9622     1.5357   -11.4987 nb            1 LIG       -0.755000
      25 C17          8.9237    -2.9614   -12.9727 c3            1 LIG       -0.109100
      26 N5           8.7356    -3.7283    -9.7477 na            1 LIG        0.203900
      27 N6           8.6186    -4.9790   -10.2716 nc            1 LIG       -0.495800
      28 C18          7.8961    -5.5607    -9.3394 cd            1 LIG        0.472900
      29 N7           7.5926    -4.7988    -8.2913 nd            1 LIG       -0.372000
      30 N8           8.1578    -3.6573    -8.5383 nc            1 LIG       -0.143800
      31 H1           7.6693     8.3872    -7.2815 ha            1 LIG        0.166000
      32 H2           5.2793    -0.8930    -9.0844 h1            1 LIG        0.067033
      33 H3           6.5783    -1.1986    -7.9209 h1            1 LIG        0.067033
      34 H4           5.0205    -0.4315    -7.3275 h1            1 LIG        0.067033
      35 H5           9.9923     5.6179    -4.8962 ha            1 LIG        0.159000
      36 H6           9.0386     3.4781   -10.9369 h4            1 LIG        0.035100
      37 H7           7.4161    -2.2243   -11.5286 h1            1 LIG        0.103700
      38 H8          10.3290    -2.7940   -10.7745 h1            1 LIG        0.083700
      39 H9           9.3957    -1.7227    -9.7144 h1            1 LIG        0.083700
      40 H10          8.1445     4.4059    -8.7361 ha            1 LIG        0.163000
      41 H11          8.1668     3.9809    -5.1580 ha            1 LIG        0.186000
      42 H12          9.6440    -0.5007   -12.5527 hn            1 LIG        0.446800
      43 H13          8.9014    -4.0274   -12.7148 hc            1 LIG        0.053033
      44 H14          8.2176    -2.8124   -13.7989 hc            1 LIG        0.053033
      45 H15          9.8880    -2.6563   -13.3973 hc            1 LIG        0.053033
      46 H16          7.5505    -6.5810    -9.4397 h5            1 LIG        0.087100
@<TRIPOS>BOND
       1       29       30 1
       2       28       29 1
       3       27       28 1
       4       26       27 1
       5       26       30 1
       6       17       18 1
       7       15       22 1
       8       15       23 1
       9       14       15 1
      10       12       13 1
      11       12       20 1
      12       11       14 1
      13       10       11 1
      14       10       20 1
      15        9       10 1
      16        9       21 1
      17        9       22 1
      18        8       16 1
      19        8       23 1
      20        8       24 1
      21        7       26 1
      22        6        7 1
      23        6       16 1
      24        6       25 1
      25        5       14 1
      26        5       24 1
      27        4       13 1
      28        4       17 1
      29        3       22 1
      30        2       17 1
      31        1        2 1
      32        1       12 1
      33        1       19 1
      34       28       46 1
      35       25       43 1
      36       25       44 1
      37       25       45 1
      38       16       42 1
      39       13       41 1
      40       11       40 1
      41        7       38 1
      42        7       39 1
      43        6       37 1
      44        5       36 1
      45        4       35 1
      46        3       32 1
      47        3       33 1
      48        3       34 1
      49        2       31 1
@<TRIPOS>SUBSTRUCTURE
       1 LIG             1 RESIDUE    0 **** ROOT      0
