@<TRIPOS>MOLECULE
LIG
46 49 1 0 1
SMALL
USER_CHARGES
@<TRIPOS>CRYSIN
   40.2522    40.2522    40.2522   109.4712   109.4712   109.4712  1  1
@<TRIPOS>ATOM
       1 C1          -2.1441     2.7022   -21.2931 c3            1 LIG       -0.131400
       2 C2          -2.6405     1.5834   -22.1641 c3            1 LIG        0.127900
       3 C3          -3.1400     0.2396   -20.2476 c3            1 LIG        0.127900
       4 C4          -2.6460     1.2553   -19.2396 c3            1 LIG       -0.131400
       5 C5           4.9455     3.5321   -10.9873 ca            1 LIG       -0.206000
       6 O1          -3.6268     0.9173   -21.3688 os            1 LIG       -0.412600
       7 C6           2.7867     0.5709   -15.7406 c             1 LIG        0.704700
       8 C7           4.1971     2.4937   -11.5240 ca            1 LIG        0.145900
       9 C8          -0.3297     3.1445   -18.0414 ca            1 LIG        0.922900
      10 C9          -1.5987     2.1329   -19.9471 c3            1 LIG        0.220500
      11 C10          0.9407     2.6922   -15.7911 ca            1 LIG       -0.420400
      12 C11          1.8010     2.5632   -14.6101 cc            1 LIG        0.005800
      13 C12          5.4654     4.5545   -11.7970 ca            1 LIG        0.150900
      14 C13          5.2937     4.5234   -13.1941 ca            1 LIG       -0.175000
      15 C14          4.5788     3.4403   -13.7413 ca            1 LIG       -0.075000
      16 C15          1.0930     1.8370   -16.8985 ca            1 LIG        0.620200
      17 C16          0.0807     3.8132   -15.9718 ca            1 LIG        0.522200
      18 C17          2.6677     1.4716   -14.5895 cd            1 LIG       -0.051100
      19 C18          4.0458     2.4599   -12.9398 ca            1 LIG        0.031100
      20 C19          2.1315    -0.1668   -18.0080 c3            1 LIG        0.070300
      21 F1           3.6914     1.5353   -10.7272 f             1 LIG       -0.130900
      22 F2           6.1918     5.5032   -11.2147 f             1 LIG       -0.133900
      23 O2           3.5122     1.3185   -13.4559 os            1 LIG       -0.223200
      24 N1          -0.6030     3.9479   -17.0637 nb            1 LIG       -0.763000
      25 O3           3.5709    -0.3803   -15.7278 o             1 LIG       -0.620500
      26 N2           2.0231     0.7760   -16.8591 n             1 LIG       -0.423300
      27 N3           0.4588     2.0949   -18.0442 nb            1 LIG       -0.807000
      28 N4          -1.1995     3.2965   -19.0474 nu            1 LIG       -0.825900
      29 H1          -1.3968     3.2183   -21.9084 hc            1 LIG        0.060700
      30 H2          -2.8814     3.4607   -21.0023 hc            1 LIG        0.060700
      31 H3          -3.0336     2.0998   -23.0485 h1            1 LIG        0.052950
      32 H4          -1.7664     0.9832   -22.4453 h1            1 LIG        0.052950
      33 H5          -2.3993    -0.5166   -20.5358 h1            1 LIG        0.052950
      34 H6          -3.9099    -0.4213   -19.8307 h1            1 LIG        0.052950
      35 H7          -3.4376     1.9689   -18.9798 hc            1 LIG        0.060700
      36 H8          -2.1563     0.7713   -18.3855 hc            1 LIG        0.060700
      37 H9           5.1893     3.4468    -9.9324 ha            1 LIG        0.166000
      38 H10         -0.7260     1.5285   -20.2239 h1            1 LIG        0.084700
      39 H11          1.5846     3.1761   -13.7426 ha            1 LIG        0.164000
      40 H12          5.6985     5.3429   -13.7807 ha            1 LIG        0.158000
      41 H13          4.5070     3.3708   -14.8227 ha            1 LIG        0.186000
      42 H14         -0.0628     4.5982   -15.2308 h4            1 LIG        0.035100
      43 H15          1.3002    -0.8756   -17.9080 h1            1 LIG        0.063700
      44 H16          1.9480     0.4190   -18.9172 h1            1 LIG        0.063700
      45 H17          3.0533    -0.7570   -18.0806 h1            1 LIG        0.063700
      46 H18         -1.7877     4.1122   -18.9341 hn            1 LIG        0.441800
@<TRIPOS>BOND
       1       20       26 1
       2       19       23 1
       3       18       23 1
       4       17       24 1
       5       16       26 1
       6       16       27 1
       7       15       19 1
       8       14       15 1
       9       13       14 1
      10       13       22 1
      11       12       18 1
      12       11       12 1
      13       11       16 1
      14       11       17 1
      15       10       28 1
      16        9       24 1
      17        9       27 1
      18        9       28 1
      19        8       19 1
      20        8       21 1
      21        7       18 1
      22        7       25 1
      23        7       26 1
      24        5        8 1
      25        5       13 1
      26        4       10 1
      27        3        4 1
      28        3        6 1
      29        2        6 1
      30        1        2 1
      31        1       10 1
      32       28       46 1
      33       20       43 1
      34       20       44 1
      35       20       45 1
      36       17       42 1
      37       15       41 1
      38       14       40 1
      39       12       39 1
      40       10       38 1
      41        5       37 1
      42        4       35 1
      43        4       36 1
      44        3       33 1
      45        3       34 1
      46        2       31 1
      47        2       32 1
      48        1       29 1
      49        1       30 1
@<TRIPOS>SUBSTRUCTURE
       1 LIG             1 RESIDUE    0 **** ROOT      0
