@<TRIPOS>MOLECULE
LIG
47 49 1 0 1
SMALL
USER_CHARGES
@<TRIPOS>CRYSIN
   79.6590    77.5808    91.2791    90.0000    90.0000    90.0000  1  1
@<TRIPOS>ATOM
       1 C8          35.5097    34.4843    57.7375 ca            1 LIG        0.957900
       2 C10         38.1147    34.1935    57.7593 ca            1 LIG       -0.415400
       3 C11         39.4837    33.8986    57.9067 cc            1 LIG        0.009800
       4 C15         37.3424    33.6282    56.7484 ca            1 LIG        0.630200
       5 C17         39.9837    33.1050    56.9004 cd            1 LIG       -0.054100
       6 CR4         33.1335    33.7808    57.4430 c3            1 LIG        0.275500
       7 CR3         32.7193    33.0982    58.8503 c3            1 LIG       -0.104100
       8 CR1         29.6169    32.8864    57.7078 c3            1 LIG       -0.375300
       9 N2          37.9578    33.1415    55.5839 n             1 LIG       -0.426300
      10 CR2         31.8669    34.4177    56.8929 c3            1 LIG       -0.355600
      11 F2          45.7029    35.5839    56.5824 f             1 LIG       -0.133900
      12 C12         44.7647    34.6157    56.6490 ca            1 LIG        0.150900
      13 C13         43.8425    34.5114    55.5570 ca            1 LIG       -0.175000
      14 C14         42.6148    33.8190    55.6914 ca            1 LIG       -0.076000
      15 C5          44.4649    34.0314    57.8494 ca            1 LIG       -0.206000
      16 C7          43.3117    33.3113    57.9933 ca            1 LIG        0.146900
      17 F1          43.0283    32.8172    59.1924 f             1 LIG       -0.129900
      18 C18         42.3436    33.1794    56.9502 ca            1 LIG        0.031100
      19 O2          41.1786    32.4834    57.2138 os            1 LIG       -0.223200
      20 C6          39.2595    32.8496    55.6463 c             1 LIG        0.706700
      21 O3          39.8630    32.3946    54.6541 o             1 LIG       -0.623500
      22 C16         37.4075    34.9141    58.7497 ca            1 LIG        0.529200
      23 N1          36.0943    35.0850    58.7096 nb            1 LIG       -0.749000
      24 N3          36.0093    33.7808    56.7351 nb            1 LIG       -0.829000
      25 C19         37.1279    32.9729    54.3296 c3            1 LIG        0.071300
      26 N4          34.2104    34.8024    57.7280 nu            1 LIG       -0.849900
      27 SR1         30.5754    33.3286    56.3250 s6            1 LIG        1.342000
      28 OR1         29.7859    34.1936    55.4638 o             1 LIG       -0.651800
      29 OR2         31.1811    32.0869    55.8059 o             1 LIG       -0.651800
      30 H11         40.0526    34.1846    58.7839 ha            1 LIG        0.164000
      31 HR6         33.5825    32.9871    56.8332 h1            1 LIG        0.084700
      32 HR7         33.6735    32.8759    59.3438 hc            1 LIG        0.049700
      33 HR8         32.1003    33.6744    59.5491 hc            1 LIG        0.049700
      34 HR9         32.0842    32.2236    58.6630 hc            1 LIG        0.049700
      35 HR3         28.6330    32.5637    57.3454 h1            1 LIG        0.122700
      36 HR1         30.0057    31.9571    58.1422 h1            1 LIG        0.122700
      37 HR2         29.6399    33.7744    58.3515 h1            1 LIG        0.122700
      38 HR4         31.3915    34.9803    57.7058 h1            1 LIG        0.118200
      39 HR5         32.0443    35.0841    56.0398 h1            1 LIG        0.118200
      40 H12         44.0572    35.0264    54.6253 ha            1 LIG        0.158000
      41 H13         41.9518    33.8415    54.8316 ha            1 LIG        0.185000
      42 H9          45.1051    34.2647    58.6949 ha            1 LIG        0.167000
      43 H14         38.0079    35.2797    59.5814 h4            1 LIG        0.035100
      44 H15         36.3443    32.2298    54.5225 h1            1 LIG        0.060367
      45 H16         36.7317    33.9077    53.9143 h1            1 LIG        0.060367
      46 H17         37.7881    32.4560    53.6222 h1            1 LIG        0.060367
      47 H18         34.0951    35.4594    58.4891 hn            1 LIG        0.450800
@<TRIPOS>BOND
       1       27       28 1
       2       27       29 1
       3       22       23 1
       4       20       21 1
       5       18       19 1
       6       16       17 1
       7       16       18 1
       8       15       16 1
       9       14       18 1
      10       13       14 1
      11       12       13 1
      12       12       15 1
      13       11       12 1
      14       10       27 1
      15        9       20 1
      16        9       25 1
      17        8       27 1
      18        6        7 1
      19        6       10 1
      20        6       26 1
      21        5       19 1
      22        5       20 1
      23        4        9 1
      24        4       24 1
      25        3        5 1
      26        2        3 1
      27        2        4 1
      28        2       22 1
      29        1       23 1
      30        1       24 1
      31        1       26 1
      32       26       47 1
      33       25       44 1
      34       25       45 1
      35       25       46 1
      36       22       43 1
      37       15       42 1
      38       14       41 1
      39       13       40 1
      40       10       38 1
      41       10       39 1
      42        8       35 1
      43        8       36 1
      44        8       37 1
      45        7       32 1
      46        7       33 1
      47        7       34 1
      48        6       31 1
      49        3       30 1
@<TRIPOS>SUBSTRUCTURE
       1 LIG             1 RESIDUE    0 **** ROOT      0
