@<TRIPOS>MOLECULE
LIG
47 49 1 0 1
SMALL
USER_CHARGES
@<TRIPOS>CRYSIN
   40.0236    40.0236    40.0236   109.4712   109.4712   109.4712  1  1
@<TRIPOS>ATOM
       1 C1           4.1557     1.8010    -8.3599 ca            1 LIG        0.957900
       2 C2           4.6488     2.7746   -10.7644 ca            1 LIG       -0.415400
       3 C3           4.9471     3.2922   -12.0545 cc            1 LIG        0.009800
       4 C4           3.3250     2.6385   -10.2445 ca            1 LIG        0.630200
       5 C5           3.8186     3.4606   -12.8690 cd            1 LIG       -0.054100
       6 C6           2.7672     1.3704    -6.2751 c3            1 LIG        0.275500
       7 C7           1.6559     0.5005    -6.9665 c3            1 LIG       -0.104100
       8 C8           2.9621     0.8703    -2.1395 c3            1 LIG       -0.375300
       9 N1           2.2164     2.8012   -11.1586 n             1 LIG       -0.426300
      10 C9           3.1577     0.8920    -4.8831 c3            1 LIG       -0.355600
      11 F1           8.0823     7.3781   -14.9856 f             1 LIG       -0.133900
      12 C10          7.0736     6.4550   -14.8894 ca            1 LIG        0.150900
      13 C11          5.7725     6.8983   -14.5019 ca            1 LIG       -0.175000
      14 C12          4.7561     5.9707   -14.1890 ca            1 LIG       -0.076000
      15 C13          7.2212     5.1350   -15.3155 ca            1 LIG       -0.206000
      16 C14          6.1846     4.1656   -15.1358 ca            1 LIG        0.146900
      17 F2           6.3673     2.8964   -15.6013 f             1 LIG       -0.129900
      18 C15          4.9650     4.5781   -14.5369 ca            1 LIG        0.031100
      19 O1           3.9876     3.7102   -14.2280 os            1 LIG       -0.223200
      20 C16          2.3894     3.1252   -12.4828 c             1 LIG        0.706700
      21 O2           1.4365     3.0382   -13.2952 o             1 LIG       -0.623500
      22 C17          5.6592     2.3597    -9.8934 ca            1 LIG        0.529200
      23 N2           5.4035     1.7890    -8.7034 nb            1 LIG       -0.749000
      24 N3           3.1293     2.2025    -9.0327 nb            1 LIG       -0.829000
      25 C18          0.8371     2.8234   -10.5958 c3            1 LIG        0.071300
      26 N4           4.0284     1.2471    -7.0932 nu            1 LIG       -0.849900
      27 S1           2.1815     1.5227    -3.5499 s6            1 LIG        1.342000
      28 O3           2.4455     2.9719    -3.5713 o             1 LIG       -0.651800
      29 O4           0.8498     0.9976    -3.6054 o             1 LIG       -0.651800
      30 H1           5.9803     3.4697   -12.3303 ha            1 LIG        0.164000
      31 H2           2.4142     2.4048    -6.1812 h1            1 LIG        0.084700
      32 H3           2.0280    -0.0606    -7.8325 hc            1 LIG        0.049700
      33 H4           1.2748    -0.2460    -6.2587 hc            1 LIG        0.049700
      34 H5           0.8093     1.1085    -7.3089 hc            1 LIG        0.049700
      35 H6           2.8463    -0.2050    -2.3226 h1            1 LIG        0.122700
      36 H7           4.0230     1.1376    -2.2208 h1            1 LIG        0.122700
      37 H8           2.3734     1.1733    -1.2648 h1            1 LIG        0.122700
      38 H9           3.0772    -0.2016    -4.9162 h1            1 LIG        0.118200
      39 H10          4.1885     1.2163    -4.6945 h1            1 LIG        0.118200
      40 H11          5.6588     7.9091   -14.1215 ha            1 LIG        0.158000
      41 H12          3.8232     6.3318   -13.7661 ha            1 LIG        0.185000
      42 H13          8.1849     4.8812   -15.7471 ha            1 LIG        0.167000
      43 H14          6.7334     2.4809   -10.0248 h4            1 LIG        0.035100
      44 H15          0.8686     3.1523    -9.5498 h1            1 LIG        0.060367
      45 H16          0.1627     3.4568   -11.1853 h1            1 LIG        0.060367
      46 H17          0.3535     1.8494   -10.4519 h1            1 LIG        0.060367
      47 H18          4.8273     0.7918    -6.6705 hn            1 LIG        0.450800
@<TRIPOS>BOND
       1       27       28 1
       2       27       29 1
       3       22       23 1
       4       20       21 1
       5       18       19 1
       6       16       17 1
       7       16       18 1
       8       15       16 1
       9       14       18 1
      10       13       14 1
      11       12       13 1
      12       12       15 1
      13       11       12 1
      14       10       27 1
      15        9       20 1
      16        9       25 1
      17        8       27 1
      18        6        7 1
      19        6       10 1
      20        6       26 1
      21        5       19 1
      22        5       20 1
      23        4        9 1
      24        4       24 1
      25        3        5 1
      26        2        3 1
      27        2        4 1
      28        2       22 1
      29        1       23 1
      30        1       24 1
      31        1       26 1
      32       26       47 1
      33       25       44 1
      34       25       45 1
      35       25       46 1
      36       22       43 1
      37       15       42 1
      38       14       41 1
      39       13       40 1
      40       10       38 1
      41       10       39 1
      42        8       35 1
      43        8       36 1
      44        8       37 1
      45        7       32 1
      46        7       33 1
      47        7       34 1
      48        6       31 1
      49        3       30 1
@<TRIPOS>SUBSTRUCTURE
       1 LIG             1 RESIDUE    0 **** ROOT      0
