@<TRIPOS>MOLECULE
LIG
49 51 1 0 1
SMALL
USER_CHARGES
@<TRIPOS>CRYSIN
   41.0119    41.0119    41.0119   109.4712   109.4712   109.4712  1  1
@<TRIPOS>ATOM
       1 C1           8.3049    -0.3786   -10.0516 ca            1 LIG       -0.206000
       2 C2           9.3953    -0.1136   -10.9424 ca            1 LIG        0.151900
       3 C3          -2.3339    -0.3007   -13.5512 c3            1 LIG       -0.138900
       4 C4          -1.3168    -0.6952   -14.6439 c3            1 LIG        0.131400
       5 C5          -3.0008     1.7774   -12.0372 c3            1 LIG       -0.138900
       6 C6           2.7780     1.8044   -14.1734 c3            1 LIG        0.065300
       7 F1           6.2416     0.3058    -9.0203 f             1 LIG       -0.130900
       8 C7           7.2377     0.5780    -9.8972 ca            1 LIG        0.145900
       9 F2          10.4679    -0.8056   -10.9392 f             1 LIG       -0.133900
      10 C8           9.3456     1.1081   -11.6507 ca            1 LIG       -0.175000
      11 C9           8.2028     1.9639   -11.6089 ca            1 LIG       -0.075000
      12 C10          7.1408     1.7215   -10.7623 ca            1 LIG        0.030100
      13 O1           6.0673     2.5842   -10.6069 os            1 LIG       -0.223200
      14 C11          4.8120     2.1701   -10.9390 cc            1 LIG       -0.050100
      15 C12          3.9315     1.7183   -10.0302 cd            1 LIG        0.005800
      16 C13          2.6160     1.2853   -10.3854 ca            1 LIG       -0.423400
      17 C14          1.6626     0.8080    -9.4749 ca            1 LIG        0.526200
      18 N1           0.4923     0.3317    -9.8577 nb            1 LIG       -0.767000
      19 C15          4.3813     2.3839   -12.3528 c             1 LIG        0.705700
      20 O2           5.0733     2.9494   -13.1615 o             1 LIG       -0.616500
      21 N2           3.1160     1.8438   -12.6926 n             1 LIG       -0.423300
      22 C16          2.2385     1.3345   -11.7357 ca            1 LIG        0.627200
      23 N3           1.0324     0.9367   -12.1354 nb            1 LIG       -0.830000
      24 C17          0.2262     0.5331   -11.1558 ca            1 LIG        0.937900
      25 N4          -1.1277     0.1311   -11.5103 nu            1 LIG       -0.852900
      26 C18         -1.8648     0.8065   -12.5596 c3            1 LIG        0.233500
      27 C19         -2.3889     3.1270   -11.5516 c3            1 LIG        0.131400
      28 O3          -1.7695     3.9051   -12.5729 oh            1 LIG       -0.598800
      29 O4          -0.1207    -1.1036   -14.0101 oh            1 LIG       -0.598800
      30 H1           8.1278    -1.3170    -9.5345 ha            1 LIG        0.166000
      31 H2          -3.2118     0.0853   -14.0839 hc            1 LIG        0.059200
      32 H3          -2.5762    -1.2420   -13.0425 hc            1 LIG        0.059200
      33 H4          -1.7965    -1.3911   -15.3432 h1            1 LIG        0.050200
      34 H5          -1.1305     0.2403   -15.1857 h1            1 LIG        0.050200
      35 H6          -3.5794     2.1022   -12.9108 hc            1 LIG        0.059200
      36 H7          -3.7653     1.2387   -11.4639 hc            1 LIG        0.059200
      37 H8           3.7024     1.9771   -14.7382 h1            1 LIG        0.066033
      38 H9           2.3131     0.8254   -14.3436 h1            1 LIG        0.066033
      39 H10          2.0254     2.5680   -14.4053 h1            1 LIG        0.066033
      40 H11         10.1767     1.3715   -12.2982 ha            1 LIG        0.159000
      41 H12          8.2308     2.8529   -12.2319 ha            1 LIG        0.186000
      42 H13          4.3220     1.5924    -9.0268 ha            1 LIG        0.164000
      43 H14          1.8898     0.8721    -8.4118 h4            1 LIG        0.036100
      44 H15         -1.6269    -0.1729   -10.6841 hn            1 LIG        0.451800
      45 H16         -1.2793     1.4182   -13.2570 h1            1 LIG        0.086700
      46 H17         -3.3107     3.6387   -11.2485 h1            1 LIG        0.050200
      47 H18         -1.7174     2.9436   -10.7038 h1            1 LIG        0.050200
      48 H19         -1.1157     4.4408   -12.0908 ho            1 LIG        0.403000
      49 H20         -0.0059    -0.4630   -13.2868 ho            1 LIG        0.403000
@<TRIPOS>BOND
       1       27       28 1
       2       25       26 1
       3       24       25 1
       4       23       24 1
       5       22       23 1
       6       21       22 1
       7       19       20 1
       8       19       21 1
       9       18       24 1
      10       17       18 1
      11       16       17 1
      12       16       22 1
      13       15       16 1
      14       14       15 1
      15       14       19 1
      16       13       14 1
      17       12       13 1
      18       11       12 1
      19       10       11 1
      20        8       12 1
      21        7        8 1
      22        6       21 1
      23        5       26 1
      24        5       27 1
      25        4       29 1
      26        3        4 1
      27        3       26 1
      28        2        9 1
      29        2       10 1
      30        1        2 1
      31        1        8 1
      32       29       49 1
      33       28       48 1
      34       27       46 1
      35       27       47 1
      36       26       45 1
      37       25       44 1
      38       17       43 1
      39       15       42 1
      40       11       41 1
      41       10       40 1
      42        6       37 1
      43        6       38 1
      44        6       39 1
      45        5       35 1
      46        5       36 1
      47        4       33 1
      48        4       34 1
      49        3       31 1
      50        3       32 1
      51        1       30 1
@<TRIPOS>SUBSTRUCTURE
       1 LIG             1 RESIDUE    0 **** ROOT      0
