@<TRIPOS>MOLECULE
LIG
41 43 1 0 1
SMALL
USER_CHARGES
@<TRIPOS>CRYSIN
   39.3314    39.3314    39.3314   109.4712   109.4712   109.4712  1  1
@<TRIPOS>ATOM
       1 C1           4.2727     3.0951    -9.8403 ca            1 LIG        0.523200
       2 C2           4.6119     4.0748   -11.9705 ca            1 LIG        0.624200
       3 N1           3.4595     2.1593   -10.4160 nb            1 LIG       -0.765000
       4 C3           4.8535     4.0684   -10.6621 ca            1 LIG       -0.429400
       5 C4           5.7949     5.0943   -10.0817 cc            1 LIG        0.006800
       6 C5           6.1886     6.1414   -11.0221 cd            1 LIG       -0.057100
       7 C6           5.8338     6.1408   -12.4096 c             1 LIG        0.698700
       8 C7           3.2915     2.2691   -11.7313 ca            1 LIG        0.927900
       9 C8           2.5869     0.5027   -13.3147 c3            1 LIG        0.219500
      10 C9           1.7489    -0.7734   -13.0213 c3            1 LIG       -0.115100
      11 C10          2.2250     1.0136   -14.7286 c3            1 LIG       -0.115100
      12 C11          6.8484     8.4744   -10.7860 ca            1 LIG        0.074100
      13 C12          5.6561     8.8991   -10.1722 ca            1 LIG       -0.135000
      14 C13          5.3608    10.2709   -10.2319 ca            1 LIG       -0.151000
      15 C14          6.1720    11.1365   -10.9175 ca            1 LIG        0.125900
      16 C15          7.3225    10.6723   -11.5568 ca            1 LIG       -0.184000
      17 C16          7.7014     9.3994   -11.3969 ca            1 LIG        0.145900
      18 F1           5.9326    12.4518   -10.8429 f             1 LIG       -0.136900
      19 F2           8.9018     9.0730   -11.8113 f             1 LIG       -0.117900
      20 O1           7.1483     7.1128   -10.6899 os            1 LIG       -0.210200
      21 O2           6.1464     7.0482   -13.1785 o             1 LIG       -0.597500
      22 N2           5.1238     5.0621   -12.8498 n             1 LIG       -0.424300
      23 C17          4.7693     5.0070   -14.2998 c3            1 LIG        0.070300
      24 N3           3.7893     3.1953   -12.5496 nb            1 LIG       -0.807000
      25 N4           2.3279     1.4738   -12.2681 nu            1 LIG       -0.828900
      26 H1           4.3774     3.0916    -8.7564 h4            1 LIG        0.033100
      27 H2           6.1555     5.1246    -9.0599 ha            1 LIG        0.158000
      28 H3           3.6439     0.2141   -13.2609 h1            1 LIG        0.083700
      29 H4           2.0383    -1.0615   -12.0032 hc            1 LIG        0.046533
      30 H5           0.6743    -0.5755   -12.9243 hc            1 LIG        0.046533
      31 H6           1.9771    -1.6557   -13.6320 hc            1 LIG        0.046533
      32 H7           2.7650     1.9451   -14.9386 hc            1 LIG        0.046533
      33 H8           2.4475     0.1712   -15.3951 hc            1 LIG        0.046533
      34 H9           1.1355     1.0443   -14.8532 hc            1 LIG        0.046533
      35 H10          5.0045     8.1120    -9.8045 ha            1 LIG        0.151000
      36 H11          4.3872    10.5543    -9.8430 ha            1 LIG        0.154000
      37 H12          7.9974    11.3345   -12.0909 ha            1 LIG        0.167000
      38 H13          3.6795     5.0154   -14.4253 h1            1 LIG        0.064367
      39 H14          5.3437     5.7329   -14.8884 h1            1 LIG        0.064367
      40 H15          5.1919     4.0617   -14.6623 h1            1 LIG        0.064367
      41 H16          1.9908     1.0508   -11.4128 hn            1 LIG        0.442800
@<TRIPOS>BOND
       1       22       23 1
       2       17       19 1
       3       16       17 1
       4       15       16 1
       5       15       18 1
       6       14       15 1
       7       13       14 1
       8       12       13 1
       9       12       17 1
      10       12       20 1
      11        9       10 1
      12        9       11 1
      13        9       25 1
      14        8       24 1
      15        8       25 1
      16        7       21 1
      17        7       22 1
      18        6        7 1
      19        6       20 1
      20        5        6 1
      21        4        5 1
      22        3        8 1
      23        2        4 1
      24        2       22 1
      25        2       24 1
      26        1        3 1
      27        1        4 1
      28       25       41 1
      29       23       38 1
      30       23       39 1
      31       23       40 1
      32       16       37 1
      33       14       36 1
      34       13       35 1
      35       11       32 1
      36       11       33 1
      37       11       34 1
      38       10       29 1
      39       10       30 1
      40       10       31 1
      41        9       28 1
      42        5       27 1
      43        1       26 1
@<TRIPOS>SUBSTRUCTURE
       1 LIG             1 RESIDUE    0 **** ROOT      0
