@<TRIPOS>MOLECULE
LIG
41 43 1 0 1
SMALL
USER_CHARGES
@<TRIPOS>CRYSIN
   79.6027    77.5259    91.2145    90.0000    90.0000    90.0000  1  1
@<TRIPOS>ATOM
       1 C16         35.6970    34.4600    57.1970 ca            1 LIG        0.523200
       2 C15         35.3565    32.7876    55.5739 ca            1 LIG        0.624200
       3 N1          34.4141    34.3316    57.5669 nb            1 LIG       -0.765000
       4 C10         36.2259    33.6628    56.1945 ca            1 LIG       -0.429400
       5 C11         37.6834    33.7261    55.9509 cc            1 LIG        0.006800
       6 C17         38.0835    32.8680    54.9534 cd            1 LIG       -0.057100
       7 C6          37.1517    32.1217    54.1021 c             1 LIG        0.698700
       8 C8          33.7312    33.4051    56.9485 ca            1 LIG        0.927900
       9 CO1         31.3811    33.0774    56.4039 c3            1 LIG        0.219500
      10 CO2         30.0245    32.8353    57.0785 c3            1 LIG       -0.115100
      11 CO3         31.1920    34.2239    55.3657 c3            1 LIG       -0.115100
      12 C18         40.4013    33.0648    55.5040 ca            1 LIG        0.074100
      13 C14         41.3957    34.0082    55.0804 ca            1 LIG       -0.135000
      14 C13         42.5169    34.2436    55.8713 ca            1 LIG       -0.151000
      15 C12         42.6170    33.6516    57.0919 ca            1 LIG        0.125900
      16 C5          41.6817    32.6727    57.5163 ca            1 LIG       -0.184000
      17 C7          40.6899    32.2782    56.6764 ca            1 LIG        0.145900
      18 F2          43.7671    33.8962    57.8710 f             1 LIG       -0.136900
      19 F1          39.9021    31.2848    57.0633 f             1 LIG       -0.117900
      20 O2          39.3980    32.7333    54.5955 os            1 LIG       -0.210200
      21 O3          37.5543    31.4448    53.1625 o             1 LIG       -0.597500
      22 N2          35.8866    31.9728    54.5261 n             1 LIG       -0.424300
      23 C19         34.9482    30.9965    53.9164 c3            1 LIG        0.070300
      24 N3          34.0984    32.5753    56.0076 nb            1 LIG       -0.807000
      25 N4          32.4477    33.4206    57.3070 nu            1 LIG       -0.828900
      26 H14         36.2788    35.1330    57.8250 h4            1 LIG        0.033100
      27 H11         38.3807    34.3203    56.5303 ha            1 LIG        0.158000
      28 HO1         31.7067    32.1536    55.9099 h1            1 LIG        0.083700
      29 HO2         30.1418    32.2094    57.9717 hc            1 LIG        0.046533
      30 HO3         29.6660    33.8317    57.3651 hc            1 LIG        0.046533
      31 HO4         29.4179    32.3239    56.3209 hc            1 LIG        0.046533
      32 HO5         32.1514    34.5295    54.9303 hc            1 LIG        0.046533
      33 HO6         30.5030    33.9356    54.5623 hc            1 LIG        0.046533
      34 HO7         30.6849    35.1111    55.7647 hc            1 LIG        0.046533
      35 H13         41.3369    34.6516    54.2075 ha            1 LIG        0.151000
      36 H12         43.3201    34.8599    55.4783 ha            1 LIG        0.154000
      37 H9          41.8479    32.1427    58.4495 ha            1 LIG        0.167000
      38 H15         34.2650    30.6462    54.7000 h1            1 LIG        0.064367
      39 H16         34.2904    31.5372    53.2247 h1            1 LIG        0.064367
      40 H17         35.5437    30.1451    53.5646 h1            1 LIG        0.064367
      41 H18         32.2090    34.2079    57.8963 hn            1 LIG        0.442800
@<TRIPOS>BOND
       1       22       23 1
       2       17       19 1
       3       16       17 1
       4       15       16 1
       5       15       18 1
       6       14       15 1
       7       13       14 1
       8       12       13 1
       9       12       17 1
      10       12       20 1
      11        9       10 1
      12        9       11 1
      13        9       25 1
      14        8       24 1
      15        8       25 1
      16        7       21 1
      17        7       22 1
      18        6        7 1
      19        6       20 1
      20        5        6 1
      21        4        5 1
      22        3        8 1
      23        2        4 1
      24        2       22 1
      25        2       24 1
      26        1        3 1
      27        1        4 1
      28       25       41 1
      29       23       38 1
      30       23       39 1
      31       23       40 1
      32       16       37 1
      33       14       36 1
      34       13       35 1
      35       11       32 1
      36       11       33 1
      37       11       34 1
      38       10       29 1
      39       10       30 1
      40       10       31 1
      41        9       28 1
      42        5       27 1
      43        1       26 1
@<TRIPOS>SUBSTRUCTURE
       1 LIG             1 RESIDUE    0 **** ROOT      0
