@<TRIPOS>MOLECULE
LIG
46 49 1 0 1
SMALL
USER_CHARGES
@<TRIPOS>CRYSIN
   40.0222    40.0222    40.0222   109.4712   109.4712   109.4712  1  1
@<TRIPOS>ATOM
       1 O1          10.7811     7.1139   -13.5305 os            1 LIG       -0.228200
       2 C1           9.1092     7.7891   -11.9814 cc            1 LIG       -0.004200
       3 C2           6.7711     7.4305   -12.5773 ca            1 LIG        0.621200
       4 C3           7.7147     7.8086   -11.6221 ca            1 LIG       -0.421400
       5 C4           7.3385     8.2866   -10.3947 ca            1 LIG        0.520200
       6 C5           5.2021     7.9427   -11.0457 ca            1 LIG        0.920900
       7 C6           9.4161     7.3380   -13.2009 cd            1 LIG       -0.041100
       8 C7          11.7686     8.0070   -13.2945 ca            1 LIG        0.118100
       9 C8           6.1663     6.9983   -14.9365 c3            1 LIG        0.070300
      10 C9           1.5374     7.9881   -10.4422 c3            1 LIG       -0.131900
      11 C10         11.8033     9.0994   -14.2072 ca            1 LIG       -0.162500
      12 C11         13.7828     9.8985   -13.2184 ca            1 LIG       -0.156000
      13 C12         12.8725     9.9828   -14.2493 ca            1 LIG       -0.102000
      14 C13         13.7555     8.8829   -12.2889 ca            1 LIG       -0.102000
      15 O2           8.8233     6.2185   -15.2028 o             1 LIG       -0.594500
      16 C14          8.4517     6.8169   -14.1584 c             1 LIG        0.698700
      17 C15         12.7720     7.8710   -12.3982 ca            1 LIG       -0.162500
      18 N1           6.0405     8.2786   -10.0757 nb            1 LIG       -0.764000
      19 N2           7.1162     7.1531   -13.8906 n             1 LIG       -0.426300
      20 N3           5.4208     7.6052   -12.3410 nb            1 LIG       -0.806000
      21 N4           3.9327     7.8814   -10.5828 nu            1 LIG       -0.824900
      22 C16          2.7307     8.0834   -11.3813 c3            1 LIG        0.218500
      23 C17          2.7075     9.4110   -12.0821 c3            1 LIG       -0.131900
      24 C18          1.3617     9.6013   -12.8390 c3            1 LIG        0.127900
      25 O3           0.2915     9.4072   -11.9097 os            1 LIG       -0.412600
      26 C19          0.2974     8.0898   -11.3675 c3            1 LIG        0.127900
      27 H1           9.9501     8.0352   -11.3432 ha            1 LIG        0.158000
      28 H2           8.0903     8.5190    -9.6419 h4            1 LIG        0.033100
      29 H3           5.2066     7.5242   -14.8605 h1            1 LIG        0.063367
      30 H4           6.5971     7.1058   -15.9396 h1            1 LIG        0.063367
      31 H5           5.8296     5.9575   -14.8542 h1            1 LIG        0.063367
      32 H6           1.6441     7.0518    -9.8806 hc            1 LIG        0.060700
      33 H7           1.5185     8.8395    -9.7507 hc            1 LIG        0.060700
      34 H8          11.1480     9.1740   -15.0700 ha            1 LIG        0.145000
      35 H9          14.6150    10.5951   -13.1772 ha            1 LIG        0.133000
      36 H10         12.8357    10.8034   -14.9598 ha            1 LIG        0.133000
      37 H11         14.6244     8.6886   -11.6672 ha            1 LIG        0.133000
      38 H12         12.7702     6.9428   -11.8344 ha            1 LIG        0.145000
      39 H13          3.8123     7.9195    -9.5787 hn            1 LIG        0.439800
      40 H14          2.4995     7.2653   -12.0746 h1            1 LIG        0.085700
      41 H15          2.8636    10.2529   -11.3963 hc            1 LIG        0.060700
      42 H16          3.5075     9.3968   -12.8326 hc            1 LIG        0.060700
      43 H17          1.4233    10.6361   -13.1979 h1            1 LIG        0.052700
      44 H18          1.3360     8.8952   -13.6781 h1            1 LIG        0.052700
      45 H19          0.2981     7.2991   -12.1280 h1            1 LIG        0.052700
      46 H20         -0.6177     8.0594   -10.7632 h1            1 LIG        0.052700
@<TRIPOS>BOND
       1       25       26 1
       2       24       25 1
       3       23       24 1
       4       22       23 1
       5       21       22 1
       6       16       19 1
       7       15       16 1
       8       14       17 1
       9       12       13 1
      10       12       14 1
      11       11       13 1
      12       10       22 1
      13       10       26 1
      14        9       19 1
      15        8       11 1
      16        8       17 1
      17        7       16 1
      18        6       18 1
      19        6       20 1
      20        6       21 1
      21        5       18 1
      22        4        5 1
      23        3        4 1
      24        3       19 1
      25        3       20 1
      26        2        4 1
      27        2        7 1
      28        1        7 1
      29        1        8 1
      30       26       45 1
      31       26       46 1
      32       24       43 1
      33       24       44 1
      34       23       41 1
      35       23       42 1
      36       22       40 1
      37       21       39 1
      38       17       38 1
      39       14       37 1
      40       13       36 1
      41       12       35 1
      42       11       34 1
      43       10       32 1
      44       10       33 1
      45        9       29 1
      46        9       30 1
      47        9       31 1
      48        5       28 1
      49        2       27 1
@<TRIPOS>SUBSTRUCTURE
       1 LIG             1 RESIDUE    0 **** ROOT      0
